** ROUTEA HEAD-TAIL MAGNETIC ROCKING EXISTENCE PROOF
** ROBOT_LOCAL_ROCKING; B0=10mT; alpha_B0=14.343111711438deg; f=5Hz; phase=0; G=0
** CLEAN INITIAL POSE: robot HEAD-to-TAIL axis aligned with straight local tangent
** ROBOT SHAPE/RIGIDITY, ONE-WALL GENERAL CONTACT, mu=0.03, zeta=0.50, dt=1e-7, AND REDUCED HYDRO UNCHANGED
** STRAIGHT-PIPE CONTROL; ONLY PIPE_WALL_HELPER AND FIELD CENTERLINE GEOMETRY CHANGED
** SAME ROBOT/MESH/CONTACT/REDUCED-HYDRO/dt/B/f/cone/bias/G/ramp/phase AS 3CYCLE
** PRODUCTION ROBOT-LOCAL FRAME VALIDATION; EXACTLY THREE 30 HZ CYCLES
** ROBOT_LOCAL_TANGENT; B0=10mT; cone=30deg; Bias=0; G=0; ramp=1ms
** MAGNETIC DRIVE FRAME AUDIT - SCREENING ONLY
** L2.4 D0.815 coarse rigid carrier; one 30 Hz cycle; G=0
** FIELD_MODE=LOCAL_TANGENT_CONE; cone=30.0 deg
** SCREENING ONLY - NOT AN AUTHORITATIVE DESIGN
** CASE GEO_240; global 0.10 mm C3D4 rigid mesh; fixed direct dt=1e-7 s
** FROZEN L2300 WALL-SUPPORTED SCREENING: 29141 C3D4; threshold-aware 5 um acceptance
** CAD L=2.300000 mm D=0.815000 mm; no mesh scaling or refinement
** R014 exterior mesh analytic-field probe; 10 mg; D055; gradient 6 mT; Bias40; forward
** RESTORED ROBOT: _robot_true_R014_source.inp mesh; exact 6 mg; 2.01 mm wall helper offset=0.005 mm
** HIGH-WOBBLE 6 ms PROBE: only damping 0.055 -> 0.020; all other physics unchanged
** BOUNDED MEDIUM PROBE: 6 ms; no geometry/physics change; output 2 us
** COPEN PRECHECK: physics unchanged; robot exterior-only surface output added
** ROBOT CONTACT SANITIZED: TRUE EXTERIOR FACES ONLY
** ROBOT PART TRANSPLANTED FROM UNROUNDED BASE; no stacked fillet
** donor=_robot_true_R014_source.inp
** High-end robot-only stop added; CEL remains open; band=0.8 mm, faces=23
** CAPSULE/FILLET VARIANT; rf=0.1 mm; source=CEL_CurrentCenterline_Cone15_Z110_PolarityPlus_Mu003_Damp055_AfterBendReverse_015.inp
** MATRIX VARIANT: mu003
** Z=110 mm single-variable probe; 5 Hz fixed; m_robot=1.168e-3 A*m^2; adaptive-lead=0.
** POLARITY-PLUS CLOSED-LOOP 0.03 s: +robot_axis_global end assumed N; adaptive-lead=0.
** FULL 3D LIVE-MAGNETIC FORCE/TORQUE CLOSED-LOOP: the force is projected onto the local DXF tangent; torque remains live from Magpylib; endpoint caps are retained in the wall helper; duration=0.008333 s
** FULL 3D LIVE-MAGNETIC FORCE/TORQUE CLOSED-LOOP: the force is projected onto the local DXF tangent; torque remains live from Magpylib; endpoint caps are retained in the wall helper; duration=0.006 s
** FULL 3D LIVE-MAGNETIC FORCE/TORQUE CLOSED-LOOP: the force is projected onto the local DXF tangent; torque remains live from Magpylib; endpoint caps are retained in the wall helper; duration=0.008333 s
** Terminal robot-only outlet stop added at low-s end; CEL remains open; cap_band=0.8 mm, faces=75
** FULL 3D LIVE-MAGNETIC FORCE/TORQUE CLOSED-LOOP: the force is projected onto the local DXF tangent; torque remains live from Magpylib; endpoint caps are retained in the wall helper; duration=0.008333 s
** FORWARD-ONLY DIAGNOSTIC: live Magpylib force projected onto the local DXF pipe tangent; magnetic torque is disabled; 0.010 s probe
** WALL/CEL FACTORIAL DIAGNOSTIC; only contact inclusions changed
** CEL boundary-wall probe: Pipe_SOLID retained as fixed mass but excluded from contact; helper R3D4 wall offset=0.2 mm, end caps removed=98
*Heading
** AUTHORIZED 8.333 ms WALL-ON WOBBLE-SURVIVAL PROBE: Wobble_F30_G6L45_WallOn_Free_0083_WobbleSurvival; G6/L45; f=30 Hz
** WALL-ON FREE-TRANSLATION PROBE: Wobble_F30_G6L45_WallOn_Free_0083_WobbleSurvival; spin=30 Hz; duration=8.333 ms
** WALL/CEL FACTORIAL: Wobble_F30_G6L45_WallOn_Free_0083_WobbleSurvival; Wall=ON; CEL=ON; 1.8 ms; phase=248 deg; gradient=6.000 mT=0.006000 T; spin=30 Hz
** FREE-TRANSLATION PROBE: F30; cone30; B=10 mT; Wall-ON; CEL-ON; translations fixed, rotations free
** Robot refined contact mesh, centerline translation + tangent-following orientation
** Job name: Job_RouteA_CEL_SOLID_robotfine Model name: RouteA_SolidCEL_Probe
** Generated by: Abaqus/CAE 2025
*Preprint, echo=NO, model=NO, history=NO, contact=NO
**
** PARTS
**
**  
*Part, name=Pipe_WALL_HELPER
*Node
1, -19.2778697489, -2.56472286113, -11.4865091191
2, -19.3034056993, -2.7224333001, -11.4133571423
3, -19.3207725728, -2.89462529144, -11.3829566679
4, -19.3287868459, -3.06956423552, -11.397379438
5, -19.326902359, -3.23532833238, -11.4556425647
6, -19.3152475367, -3.38062103277, -11.553775512
7, -19.294616636, -3.49554087926, -11.6850906819
8, -19.2664156186, -3.57225627423, -11.8406391625
9, -19.2325663373, -3.60553919028, -12.0098205819
10, -19.1953755647, -3.5931214517, -12.181105506
11, -19.1573777904, -3.53584930685, -12.3428211503
12, -19.1211625, -3.43762575774, -12.4839468608
13, -19.0891977056, -3.30514457694, -12.5948651536
14, -19.0636617552, -3.14743413797, -12.6680171303
15, -19.0462948816, -2.97524214662, -12.6984176047
16, -19.0382806086, -2.80030320255, -12.6839948346
17, -19.0401650955, -2.63453910568, -12.625731708
18, -19.0518199178, -2.48924640529, -12.5275987606
19, -19.0724508185, -2.3743265588, -12.3962835907
20, -19.1006518359, -2.29761116383, -12.2407351101
** ... 2884 like lines cut
*Element, type=R3D4
1, 1, 25, 26, 2
2, 2, 26, 27, 3
3, 3, 27, 28, 4
4, 4, 28, 29, 5
5, 5, 29, 30, 6
6, 6, 30, 31, 7
7, 7, 31, 32, 8
8, 8, 32, 33, 9
9, 9, 33, 34, 10
10, 10, 34, 35, 11
11, 11, 35, 36, 12
12, 12, 36, 37, 13
13, 13, 37, 38, 14
14, 14, 38, 39, 15
15, 15, 39, 40, 16
16, 16, 40, 41, 17
17, 17, 41, 42, 18
18, 18, 42, 43, 19
19, 19, 43, 44, 20
20, 20, 44, 45, 21
** ... 2860 like lines cut
*Elset, elset=PIPE_WALL_HELPER_ALL, generate
1, 2880, 1
*Surface, type=ELEMENT, name=PIPE_WALL_HELPER_SURF
PIPE_WALL_HELPER_ALL, SPOS
*End Part
** Robot-only terminal stop; not included in CEL material contact
*Part, name=Pipe_TERMINAL_STOP
*Node
       1, -17.8120422, -16.0254612, -1.98043847
       2, -18.0087299, -16.4204502, -1.75030053
       3, -18.288311, -16.5256882, -2.16986728
       4, -18.0916214, -16.1306992, -2.40000534
       5, -18.3395977, -16.7643833, -2.62337637
       6, -18.1429081, -16.3693943, -2.85351443
       7, -18.1488495, -17.0725784, -2.9893105
       8, -17.9521599, -16.6775894, -3.21944857
       9, -17.7671776, -17.367691, -3.16961789
      10, -17.570488, -16.972702, -3.39975595
      11, -17.6153526, -15.6304722, -2.21057653
      12, -17.8949337, -15.7357101, -2.63014317
      13, -17.9462204, -15.9744062, -3.08365226
      14, -17.7554722, -16.2826004, -3.44958639
      15, -17.3737984, -16.577713, -3.62989378
      16, -17.4186649, -15.2354832, -2.44071436
      17, -17.6982441, -15.3407211, -2.86028123
      18, -17.7495308, -15.5794172, -3.31379032
      19, -17.5587826, -15.8876114, -3.67972445
      20, -17.1771107, -16.182724, -3.86003184
** ... 82 like lines cut
*Element, type=R3D4
       1, 1, 2, 3, 4
       2, 4, 3, 5, 6
       3, 6, 5, 7, 8
       4, 8, 7, 9, 10
       5, 11, 1, 4, 12
       6, 12, 4, 6, 13
       7, 13, 6, 8, 14
       8, 14, 8, 10, 15
       9, 16, 11, 12, 17
      10, 17, 12, 13, 18
      11, 18, 13, 14, 19
      12, 19, 14, 15, 20
      13, 21, 16, 17, 22
      14, 22, 17, 18, 23
      15, 23, 18, 19, 24
      16, 24, 19, 20, 25
      17, 26, 21, 22, 27
      18, 27, 22, 23, 28
      19, 28, 23, 24, 29
      20, 29, 24, 25, 30
** ... 55 like lines cut
*Elset, elset=PIPE_TERMINAL_STOP_ALL, generate
1, 75, 1
*Surface, type=ELEMENT, name=PIPE_TERMINAL_STOP_SURF
PIPE_TERMINAL_STOP_ALL, SPOS
*End Part
** Robot-only HIGH terminal stop; CEL material remains open
*Part, name=Pipe_TERMINAL_STOP_HIGH
*Node
       1, 6.27608633, -5.94825697, -5.65262365
       2, 6.23722649, -5.56458235, -5.31121445
       3, 6.34579229, -5.31667519, -5.61977959
       4, 6.38327122, -5.54258728, -5.87859058
       5, 6.42685938, -5.04812479, -5.80939579
       6, 6.46756983, -5.20532656, -6.0474062
       7, 6.27052021, -5.06325388, -5.19791079
       8, 6.33665085, -5.0666728, -5.4613657
       9, 6.36704683, -4.57860231, -5.34307146
      10, 6.40535831, -4.81330633, -5.60947752
      11, 6.58144331, -4.56312513, -6.18421125
      12, 6.53330231, -4.8993721, -6.15803194
      13, 6.48639822, -4.85262394, -5.94950342
      14, 6.49429512, -4.60639381, -5.86038208
      15, 6.58811331, -4.99606991, -6.42228222
      16, 6.52141619, -5.31991053, -6.3165822
      17, 6.44574213, -5.67432833, -6.19029665
      18, 6.65065527, -4.65971994, -6.50541687
      19, 6.5850873, -5.45662498, -6.63546896
      20, 6.51303816, -5.71766949, -6.47788239
** ... 10 like lines cut
*Element, type=R3D4
       1, 1, 2, 3, 4
       2, 4, 3, 5, 6
       3, 2, 7, 8, 3
       4, 9, 10, 8, 7
       5, 11, 12, 13, 14
       6, 6, 12, 15, 16
       7, 6, 16, 17, 4
       8, 18, 15, 12, 11
       9, 13, 5, 10, 14
      10, 16, 19, 20, 17
      11, 21, 22, 17, 20
      12, 9, 23, 14, 10
      13, 14, 23, 24, 11
      14, 24, 25, 18, 11
      15, 18, 25, 26, 27
      16, 27, 26, 28, 29
      17, 12, 6, 5, 13
      18, 22, 1, 4, 17
      19, 20, 19, 30, 21
      20, 18, 27, 29, 15
      21, 29, 28, 30, 19
      22, 29, 19, 16, 15
      23, 5, 3, 8, 10
*Elset, elset=PIPE_TERMINAL_STOP_HIGH_ALL, generate
1, 23, 1
*Surface, type=ELEMENT, name=PIPE_TERMINAL_STOP_HIGH_SURF
PIPE_TERMINAL_STOP_HIGH_ALL, SPOS
*End Part
*Part, name=Pipe_SOLID
*Node
      1,  -16.5284824,  -17.2844334,  -1.96806526
      2,  -18.3441372,  -16.7630806,  -2.62501884
      3,  -13.0335417,  -6.09837723,  -8.83874321
      4,  -11.2178869,  -6.61973047,   -8.1817894
      5,  -6.19710016,  -2.70104122,  -9.94260216
      6,   6.73808718,  -4.29859257,  -6.67496824
      7,   6.27492857,  -5.95239115,  -5.65006161
      8,  -6.66025925,   -4.3548398,    -8.917696
      9,  -16.7201881,  -16.9746914,  -1.60029233
     10,  -17.1037788,  -16.6780949,  -1.41907883
     11,  -17.5764713,  -16.4741192,  -1.47298098
     12,  -18.0116062,  -16.4174194,  -1.74755561
     13,   -18.292593,  -16.5231857,   -2.1692307
     14,  -18.1524296,  -17.0728245,  -2.99279189
     15,  -17.7688389,  -17.3694191,  -3.17400527
     16,  -17.2961483,  -17.5733948,  -3.12010312
     17,  -16.8610115,  -17.6300964,  -2.84552836
     18,  -16.5800266,  -17.5243282,   -2.4238534
     19,  -18.1474476,  -16.3680916,  -2.85515666
     20,  -17.9507599,  -15.9731026,  -3.08529472
** ... 1325 like lines cut
*Element, type=C3D4
   1,  843,  844,  845,  846
   2,  847,  671,  848,  676
   3,  846,  849,  845,  850
   4,  846,  851,  849,  850
   5,  849,  852,  851,  846
   6,  853,  849,  852,  851
   7,  846,  854,  855,  851
   8,  846,  852,  851,  855
   9,  856,  498,  857,  858
  10,  859,  860,  861,  862
  11,  859,  863,  860,  862
  12,  859,  864,  865,  866
  13,  867,  499,  494,  495
  14,  868,  869,  870,  859
  15,  871,  872,  873,   21
  16,  859,  869,  863,  874
  17,  859,  875,  862,  866
  18,  859,  876,  875,  868
  19,  877,  586,  843,  587
  20,  876,  869,  868,  859
** ... 5183 like lines cut
*Nset, nset=PIPE_CEL_BODY, generate
    1,  1345,     1
*Elset, elset=PIPE_CEL_BODY, generate
    1,  5203,     1
*Elset, elset=PIPE_SOLID_ALL, generate
1, 5203, 1
*Surface, type=ELEMENT, name=PIPE_SOLID_SURF
PIPE_SOLID_ALL, S1
PIPE_SOLID_ALL, S2
PIPE_SOLID_ALL, S3
PIPE_SOLID_ALL, S4
** Section: SEC_PIPE_RIGID
*Solid Section, elset=PIPE_CEL_BODY, material=MAT_PIPE_RIGID
,
*End Part
**  
** SCREENING ONLY: exact STEP import; no node scaling
*Part, name=Robot_SOLID
*Node
1, -6.32574341792, -3.34095707, -9.31279264887
2, -8.41352332587, -3.20872895493, -9.75652214882
3, -8.69444719051, -3.5992528536, -9.81137306633
4, -6.34669206343, -3.35164034418, -9.217411269
5, -6.36791287363, -3.38533824317, -9.12760752256
6, -6.38817257786, -3.44009237588, -9.04860045252
7, -6.40629374846, -3.51272061933, -8.98498169346
8, -6.42122325315, -3.59900208193, -8.94044851557
9, -6.43209344128, -3.69392241047, -8.91758903862
10, -6.43827257948, -3.79196517519, -8.91773175943
11, -6.43940155859, -3.88743248623, -8.94086838355
12, -6.43541476344, -3.97477612548, -8.98565430741
13, -6.42654389562, -4.04892000962, -9.04948672258
14, -6.41330449317, -4.10555516397, -9.12865594194
15, -6.39646598783, -4.14139014669, -9.21856090735
16, -6.3770069677, -4.15434236777, -9.31397669341
17, -6.35605832219, -4.14365909358, -9.40935807328
18, -6.33483751199, -4.1099611946, -9.49916181972
19, -6.31457780776, -4.0552070619, -9.57816888975
20, -6.29645663717, -3.98257881843, -9.64178764881
** ... 1568 like lines cut
*Element, type=C3D4
1, 706, 707, 708, 709
2, 710, 711, 712, 713
3, 711, 712, 713, 714
4, 714, 715, 712, 716
5, 714, 717, 715, 716
6, 714, 717, 707, 718
7, 719, 720, 600, 601
8, 721, 722, 723, 724
9, 725, 726, 727, 333
10, 722, 728, 729, 730
11, 722, 724, 731, 732
12, 722, 733, 734, 735
13, 722, 736, 729, 732
14, 714, 709, 737, 738
15, 714, 738, 739, 709
16, 739, 740, 738, 741
17, 709, 708, 742, 740
18, 708, 739, 740, 709
19, 714, 739, 718, 709
20, 739, 718, 709, 708
** ... 7282 like lines cut
*Elset, elset=ROBOT_EXTERIOR_S1
30, 47, 68, 171, 237, 299, 345, 360, 404, 418, 501, 544, 546, 667, 872, 937
1023, 1055, 1129, 1159, 1183, 1184, 1202, 1205, 1250, 1323, 1356, 1385, 1408, 1449, 1499, 1527
1608, 1610, 1617, 1618, 1621, 1627, 1629, 1635, 1636, 1650, 1657, 1665, 1685, 1686, 1687, 1688
1693, 1702, 1704, 1707, 1708, 1709, 1718, 1722, 1724, 1728, 1731, 1734, 1746, 1748, 1749, 1759
1761, 1763, 1764, 1775, 1782, 1787, 1789, 1794, 1804, 1814, 1816, 1820, 1823, 1826, 1828, 1831
1837, 1841, 1849, 1861, 1863, 1866, 1868, 1870, 1872, 1875, 1882, 1886, 1888, 1890, 1895, 1899
1901, 1917, 1918, 1919, 1922, 1923, 1926, 1928, 1929, 1930, 1931, 1933, 1935, 1941, 1946, 1949
1951, 1952, 1955, 1961, 1963, 1964, 1967, 1978, 1979, 1981, 1982, 1988, 1990, 1993, 1996, 1997
1998, 2013, 2016, 2031, 2038, 2042, 2054, 2059, 2063, 2066, 2073, 2077, 2078, 2082, 2084, 2087
2089, 2095, 2096, 2100, 2115, 2118, 2119, 2122, 2137, 2141, 2144, 2145, 2148, 2149, 2155, 2162
2165, 2169, 2171, 2172, 2173, 2176, 2177, 2182, 2186, 2195, 2200, 2206, 2208, 2219, 2220, 2221
2226, 2228, 2230, 2235, 2238, 2242, 2250, 2254, 2258, 2262, 2266, 2267, 2268, 2274, 2279, 2281
2284, 2286, 2293, 2294, 2295, 2299, 2303, 2315, 2317, 2323, 2324, 2332, 2334, 2338, 2340, 2343
2351, 2352, 2353, 2357, 2358, 2362, 2367, 2370, 2371, 2374, 2379, 2382, 2384, 2385, 2386, 2387
2393, 2398, 2399, 2401, 2407, 2410, 2414, 2415, 2418, 2421, 2422, 2423, 2428, 2434, 2437, 2439
2440, 2444, 2445, 2450, 2455, 2462, 2464, 2467, 2471, 2476, 2478, 2481, 2484, 2489, 2494, 2495
2498, 2504, 2505, 2508, 2510, 2511, 2517, 2518, 2520, 2526, 2528, 2536, 2538, 2540, 2541, 2544
2547, 2549, 2559, 2560, 2570, 2571, 2574, 2578, 2584, 2592, 2595, 2599, 2609, 2610, 2613, 2614
2615, 2618, 2626, 2630, 2637, 2639, 2640, 2641, 2645, 2648, 2653, 2657, 2658, 2663, 2664, 2668
2671, 2675, 2676, 2677, 2681, 2683, 2687, 2692, 2700, 2704, 2707, 2715, 2724, 2725, 2726, 2737
** ... 57 like lines cut
*Elset, elset=ROBOT_EXTERIOR_S2
1146, 1523, 1627, 1654, 1800, 1842, 1870, 1930, 2106, 2140, 2241, 2257, 2277, 2307, 2347, 2485
2579, 2706, 2867, 2939, 3028, 3350, 3425, 3584, 3677, 3913, 4029, 4054, 4064, 4178, 4270, 4329
4377, 4435, 4440, 4453, 4461, 4770, 4895, 5091, 5188, 5256, 5446, 5449, 5450, 5496, 5617, 5629
5643, 5676, 5699, 5716, 5760, 5795, 5831, 5910, 6178, 6229, 6349, 6371, 6556, 6562, 6585, 6634
6641, 6690, 6796, 6922, 7102, 7194
*Elset, elset=ROBOT_EXTERIOR_S3
134, 1142, 1323, 1539, 1625, 1741, 1745, 1880, 1911, 1981, 2156, 2176, 2194, 2216, 2220, 2227
2234, 2274, 2275, 2276, 2300, 2314, 2327, 2348, 2425, 2430, 2717, 2784, 2972, 3227, 3294, 3468
3505, 3512, 3639, 3745, 3776, 3787, 3943, 3955, 3984, 4011, 4110, 4127, 4273, 4418, 4436, 4661
4752, 4776, 4897, 4929, 4933, 5094, 5405, 5673, 5823, 5834, 5904, 5930, 5953, 5967, 5994, 6112
6139, 6156, 6209
*Elset, elset=ROBOT_EXTERIOR_S4
501, 940, 1143, 1610, 1636, 1655, 1699, 1790, 1826, 1929, 1931, 2115, 2199, 2208, 2291, 2302
2319, 2335, 2339, 3008, 3082, 3236, 3288, 3972, 4107, 4155, 4193, 4228, 4471, 4549, 4598, 4703
4923, 5027, 5873, 5880, 5934, 6051, 6088, 6315, 6564, 6610, 6633, 6733, 6865, 6997, 7210
*Nset, nset=ROBOT_CEL_BODY, generate
1, 1588, 1
*Elset, elset=ROBOT_CEL_BODY, generate
1, 7302, 1
*Elset, elset=ROBOT_SOLID_ALL, generate
1, 7302, 1
*Surface, type=ELEMENT, name=ROBOT_SOLID_SURF
ROBOT_EXTERIOR_S1, S1
ROBOT_EXTERIOR_S2, S2
ROBOT_EXTERIOR_S3, S3
ROBOT_EXTERIOR_S4, S4
*Solid Section, elset=ROBOT_CEL_BODY, material=MAT_ROBOT_RIGID
,
*End Part
**  
**
** ASSEMBLY
**
*Assembly, name=Assembly
*Instance, name=Pipe_WALL_HELPER-1, part=Pipe_WALL_HELPER
*End Instance
**  
*Instance, name=Pipe_TERMINAL_STOP-1, part=Pipe_TERMINAL_STOP
*End Instance
**  
*Instance, name=Pipe_TERMINAL_STOP_HIGH-1, part=Pipe_TERMINAL_STOP_HIGH
*End Instance
**  
*Elset, elset=PIPE_TERMINAL_STOP_CEL_ALL, instance=Pipe_TERMINAL_STOP-1, generate
1, 75, 1
*Elset, elset=PIPE_TERMINAL_STOP_HIGH_CEL_ALL, instance=Pipe_TERMINAL_STOP_HIGH-1, generate
1, 23, 1
*Elset, elset=PIPE_WALL_HELPER_CEL_ALL, instance=Pipe_WALL_HELPER-1, generate
1, 2880, 1
**  
*Instance, name=Pipe_SOLID-1, part=Pipe_SOLID
*End Instance
**  
*Instance, name=Robot_SOLID-1, part=Robot_SOLID
*End Instance
**  
*Elset, elset=PIPE_SOLID_CEL_ALL, instance=Pipe_SOLID-1, generate
1, 5203, 1
*Elset, elset=ROBOT_SOLID_CEL_ALL, instance=Robot_SOLID-1, generate
1, 7302, 1
**  
*Node
      1,  -5.80302477,  -9.99273777,  -5.95533371
*Node
      2, -7.468174204284, -3.676918015967, -9.550745259298
*Nset, nset=RP_PIPE
 1,
*Nset, nset=RP_ROBOT
 2,
*Elset, elset=PIPE_RIGID_ALL
PIPE_SOLID_CEL_ALL,
PIPE_WALL_HELPER_CEL_ALL,
PIPE_TERMINAL_STOP_CEL_ALL,
PIPE_TERMINAL_STOP_HIGH_CEL_ALL,
*Rigid Body, ref node=RP_PIPE, elset=PIPE_RIGID_ALL
** Constraint: RB_PIPE
** Constraint: RB_ROBOT
*Rigid Body, ref node=RP_ROBOT, elset=ROBOT_SOLID_CEL_ALL
*End Assembly
** Reduced-Hydro: CEL fluid part, material, initialization and CEL contact were removed.
** 
** MATERIALS
** 
*Material, name=MAT_PIPE_RIGID
*Density
 1e-09,
*Elastic
 1e+06, 0.3
*Material, name=MAT_ROBOT_RIGID
*Density
7.80906654321e-09, 
*Elastic
 1e+06, 0.3
** 
** INTERACTION PROPERTIES
** 
*Surface Interaction, name=PROP_CEL_HARD
*Friction
0.03,
*Surface Behavior, pressure-overclosure=HARD
*Contact Damping, definition=CRITICAL DAMPING FRACTION, tangent fraction=0.0
0.5
** 
** BOUNDARY CONDITIONS
** 
** Name: BC_PIPE_FIXED Type: Symmetry/Antisymmetry/Encastre
*Boundary
RP_PIPE, ENCASTRE
** ----------------------------------------------------------------
** 
** STEP: Step_Drive
** 
*Contact
*Contact Inclusions
ROBOT_SOLID-1.ROBOT_SOLID_SURF, Pipe_WALL_HELPER-1.PIPE_WALL_HELPER_SURF
*Contact Property Assignment
ROBOT_SOLID-1.ROBOT_SOLID_SURF, Pipe_WALL_HELPER-1.PIPE_WALL_HELPER_SURF, PROP_CEL_HARD
** REDUCED-HYDRO BASELINE; CEL REMOVED; production external Magpylib retained.
** FREE-TRANSLATION PARAMETERS: phase=248.0 deg; cone=30 deg; Bias40; gradient=6.000 mT=0.006000 T; server-side analytic field
** SOCKET BASELINE JOB: Job_RouteA_CEL_Socket_ConnectorFixed_Capsule_0p003
** Local centerline frame at COM RP (metadata only); COM translations constrained in calibration
** COM-fixed RP_ROBOT = (-7.468174204284, -3.676918015967, -9.550745259298) mm; volume-weighted mesh COM
** tangent-X = (-0.928048296, 0.179421111, -0.326396119)
** transported-Y = (0.140416425, 0.988230515, -0.0606933022)
** binormal-Z = (0.312362773, -0.102386426, -0.944429202)
** CSF rho=1.0007e-09 tonne/mm^3; mu=7.1e-10 N*s/mm^2; c0=1480000 mm/s
*Step, name=Step_Drive, nlgeom=YES
*Dynamic, Explicit, DIRECT
1.0e-7, 0.200000000
*Bulk Viscosity
0.06, 1.2
** 
** BOUNDARY CONDITIONS
** 
** REDUCED-HYDRO LOAD INTERFACE: magnetic Socket loads plus dissipative body-following hydro loads.
** SOCKET_* remain production Magpylib loads; HYDRO_* are local dissipative loads from RP V/VR sensors.
** DOF 1..3: Fx,Fy,Fz [N]; DOF 4..6: Mx,My,Mz [N*mm].
** Abaqus uses *CLOAD for both concentrated forces and moments;
** CFORCE/CMOMENT are output quantities, not input keywords.
*Amplitude, name=SOCKET_FX, definition=USER
*Amplitude, name=SOCKET_FY, definition=USER
*Amplitude, name=SOCKET_FZ, definition=USER
*Amplitude, name=SOCKET_MX, definition=USER
*Amplitude, name=SOCKET_MY, definition=USER
*Amplitude, name=SOCKET_MZ, definition=USER
*Cload, amplitude=SOCKET_FX
RP_ROBOT, 1, 1.
*Cload, amplitude=SOCKET_FY
RP_ROBOT, 2, 1.
*Cload, amplitude=SOCKET_FZ
RP_ROBOT, 3, 1.
*Cload, amplitude=SOCKET_MX
RP_ROBOT, 4, 1.
*Cload, amplitude=SOCKET_MY
RP_ROBOT, 5, 1.
*Cload, amplitude=SOCKET_MZ
RP_ROBOT, 6, 1.
*Amplitude, name=HYDRO_FX, definition=USER
*Amplitude, name=HYDRO_FY, definition=USER
*Amplitude, name=HYDRO_FZ, definition=USER
*Amplitude, name=HYDRO_MX, definition=USER
*Amplitude, name=HYDRO_MY, definition=USER
*Amplitude, name=HYDRO_MZ, definition=USER
*Cload, amplitude=HYDRO_FX
RP_ROBOT, 1, 1.
*Cload, amplitude=HYDRO_FY
RP_ROBOT, 2, 1.
*Cload, amplitude=HYDRO_FZ
RP_ROBOT, 3, 1.
*Cload, amplitude=HYDRO_MX
RP_ROBOT, 4, 1.
*Cload, amplitude=HYDRO_MY
RP_ROBOT, 5, 1.
*Cload, amplitude=HYDRO_MZ
RP_ROBOT, 6, 1.
** 
** OUTPUT REQUESTS
** 
*Restart, write, number interval=1, time marks=NO
** 
** FIELD OUTPUT: F-Output-1
** 
** IMPACT ENERGY DIAGNOSTIC: preserve all existing physics; save visualization/contact fields every 25 us; RP and contact-resultant history remains every increment.
*Output, field, time interval=5.0e-4, time marks=NO
*Node Output
U
*Node Output, nset=RP_ROBOT
U, UR, V, VR, A, AR, CF, RF, RM
*Contact Output, general contact
CSTRESS, CFORCE
*Contact Output, surface=ROBOT_SOLID-1.ROBOT_SOLID_SURF
CDISP
*Output, history, frequency=1
*Node Output, nset=RP_ROBOT
COORD, U, UR, V, VR, A, AR, CF, RF, RM
*Contact Output, surface=ROBOT_SOLID-1.ROBOT_SOLID_SURF
CFN, CFS, CFT
*Contact Output, surface=Pipe_WALL_HELPER-1.PIPE_WALL_HELPER_SURF
CFN, CFS, CFT
*Output, history, time interval=5.0e-5
*Energy Output, variable=ALL
*Output, history, frequency=1, sensor, name=RP_U1
*Node Output, nset=RP_ROBOT
U1
*Output, history, frequency=1, sensor, name=RP_U2
*Node Output, nset=RP_ROBOT
U2
*Output, history, frequency=1, sensor, name=RP_U3
*Node Output, nset=RP_ROBOT
U3
*Output, history, frequency=1, sensor, name=RP_UR1
*Node Output, nset=RP_ROBOT
UR1
*Output, history, frequency=1, sensor, name=RP_UR2
*Node Output, nset=RP_ROBOT
UR2
*Output, history, frequency=1, sensor, name=RP_UR3
*Node Output, nset=RP_ROBOT
UR3
*Output, history, frequency=1, sensor, name=RP_V1
*Node Output, nset=RP_ROBOT
V1
*Output, history, frequency=1, sensor, name=RP_V2
*Node Output, nset=RP_ROBOT
V2
*Output, history, frequency=1, sensor, name=RP_V3
*Node Output, nset=RP_ROBOT
V3
*Output, history, frequency=1, sensor, name=RP_VR1
*Node Output, nset=RP_ROBOT
VR1
*Output, history, frequency=1, sensor, name=RP_VR2
*Node Output, nset=RP_ROBOT
VR2
*Output, history, frequency=1, sensor, name=RP_VR3
*Node Output, nset=RP_ROBOT
VR3
*End Step
