** FROZEN L2300 WALL-SUPPORTED SCREENING: 29141 C3D4; threshold-aware 5 um acceptance
** CAD L=2.300000 mm D=0.815000 mm; no mesh scaling or refinement
** R014 exterior mesh analytic-field probe; 10 mg; D055; gradient 6 mT; Bias40; forward
** RESTORED ROBOT: _robot_true_R014_source.inp mesh; exact 6 mg; 2.01 mm wall helper offset=0.005 mm
** HIGH-WOBBLE 6 ms PROBE: only damping 0.055 -> 0.020; all other physics unchanged
** BOUNDED MEDIUM PROBE: 6 ms; no geometry/physics change; output 2 us
** COPEN PRECHECK: physics unchanged; robot exterior-only surface output added
** ROBOT CONTACT SANITIZED: TRUE EXTERIOR FACES ONLY
** ROBOT PART TRANSPLANTED FROM UNROUNDED BASE; no stacked fillet
** donor=_robot_true_R014_source.inp
** High-end robot-only stop added; CEL remains open; band=0.8 mm, faces=23
** CAPSULE/FILLET VARIANT; rf=0.1 mm; source=CEL_CurrentCenterline_Cone15_Z110_PolarityPlus_Mu003_Damp055_AfterBendReverse_015.inp
** MATRIX VARIANT: mu003
** Z=110 mm single-variable probe; 5 Hz fixed; m_robot=1.168e-3 A*m^2; adaptive-lead=0.
** POLARITY-PLUS CLOSED-LOOP 0.03 s: +robot_axis_global end assumed N; adaptive-lead=0.
** FULL 3D LIVE-MAGNETIC FORCE/TORQUE CLOSED-LOOP: the force is projected onto the local DXF tangent; torque remains live from Magpylib; endpoint caps are retained in the wall helper; duration=0.008333 s
** FULL 3D LIVE-MAGNETIC FORCE/TORQUE CLOSED-LOOP: the force is projected onto the local DXF tangent; torque remains live from Magpylib; endpoint caps are retained in the wall helper; duration=0.006 s
** FULL 3D LIVE-MAGNETIC FORCE/TORQUE CLOSED-LOOP: the force is projected onto the local DXF tangent; torque remains live from Magpylib; endpoint caps are retained in the wall helper; duration=0.008333 s
** Terminal robot-only outlet stop added at low-s end; CEL remains open; cap_band=0.8 mm, faces=75
** FULL 3D LIVE-MAGNETIC FORCE/TORQUE CLOSED-LOOP: the force is projected onto the local DXF tangent; torque remains live from Magpylib; endpoint caps are retained in the wall helper; duration=0.008333 s
** FORWARD-ONLY DIAGNOSTIC: live Magpylib force projected onto the local DXF pipe tangent; magnetic torque is disabled; 0.010 s probe
** WALL/CEL FACTORIAL DIAGNOSTIC; only contact inclusions changed
** CEL boundary-wall probe: Pipe_SOLID retained as fixed mass but excluded from contact; helper R3D4 wall offset=0.2 mm, end caps removed=98
*Heading
** AUTHORIZED 8.333 ms WALL-ON WOBBLE-SURVIVAL PROBE: Wobble_F30_G6L45_WallOn_Free_0083_WobbleSurvival; G6/L45; f=30 Hz
** WALL-ON FREE-TRANSLATION PROBE: Wobble_F30_G6L45_WallOn_Free_0083_WobbleSurvival; spin=30 Hz; duration=8.333 ms
** WALL/CEL FACTORIAL: Wobble_F30_G6L45_WallOn_Free_0083_WobbleSurvival; Wall=ON; CEL=ON; 1.8 ms; phase=248 deg; gradient=6.000 mT=0.006000 T; spin=30 Hz
** FREE-TRANSLATION PROBE: F30; cone30; B=10 mT; Wall-ON; CEL-ON; translations fixed, rotations free
** Robot refined contact mesh, centerline translation + tangent-following orientation
** Job name: Job_RouteA_CEL_SOLID_robotfine Model name: RouteA_SolidCEL_Probe
** Generated by: Abaqus/CAE 2025
*Preprint, echo=NO, model=NO, history=NO, contact=NO
**
** PARTS
**
**  
*Part, name=Pipe_WALL_HELPER
*Node
       1, -16.5312897005, -17.2868904576, -1.9669035138
       2, -16.970186333, -17.1510059578, -2.10575531598
       3, -17.0595094318, -16.9508545594, -1.83857117776
       4, -16.7227038313, -16.9776193944, -1.5996919504
       5, -16.3317931628, -16.889444982, -2.19820316494
       6, -16.5234998969, -16.5797011677, -1.83043029113
       7, -17.3244134201, -17.031705164, -2.20373843566
       8, -17.3635636271, -16.8736908617, -1.96599708767
       9, -17.2092992278, -16.7707359574, -1.65744899091
      10, -17.1057082159, -16.6814764918, -1.41875507815
      11, -16.9070916517, -16.2831055879, -1.64921683443
      12, -17.5776795246, -16.4778127316, -1.47257492853
      13, -17.4839078321, -16.6879875554, -1.7501234811
      14, -17.379782511, -16.0791305094, -1.70311896567
      15, -17.9256078331, -16.7447941558, -2.22512220262
      16, -17.7599030349, -16.6624138527, -1.94211206892
      17, -17.585744927, -16.8181869606, -2.06062148565
      18, -17.6289197219, -16.9097091641, -2.2546040873
      19, -17.3339940228, -17.1778080593, -2.46268508992
      20, -17.6517774276, -17.044993662, -2.50632761859
** ... 776 like lines cut
*Element, type=R3D4
       1, 1, 2, 3, 4
       2, 5, 1, 4, 6
       3, 2, 7, 8, 3
       4, 4, 3, 9, 10
       5, 6, 4, 10, 11
       6, 12, 10, 9, 13
       7, 11, 10, 12, 14
       8, 15, 16, 17, 18
       9, 7, 19, 20, 18
      10, 7, 2, 21, 19
      11, 22, 15, 18, 20
      12, 17, 16, 13, 8
      13, 19, 21, 23, 24
      14, 25, 23, 21, 26
      15, 27, 25, 26, 28
      16, 12, 13, 16, 29
      17, 14, 12, 29, 30
      18, 16, 15, 31, 29
      19, 31, 15, 22, 32
      20, 22, 33, 34, 32
** ... 744 like lines cut
*Elset, elset=PIPE_WALL_HELPER_ALL, generate
1, 764, 1
*Surface, type=ELEMENT, name=PIPE_WALL_HELPER_SURF
PIPE_WALL_HELPER_ALL, SPOS
*End Part
** Robot-only terminal stop; not included in CEL material contact
*Part, name=Pipe_TERMINAL_STOP
*Node
       1, -17.8120422, -16.0254612, -1.98043847
       2, -18.0087299, -16.4204502, -1.75030053
       3, -18.288311, -16.5256882, -2.16986728
       4, -18.0916214, -16.1306992, -2.40000534
       5, -18.3395977, -16.7643833, -2.62337637
       6, -18.1429081, -16.3693943, -2.85351443
       7, -18.1488495, -17.0725784, -2.9893105
       8, -17.9521599, -16.6775894, -3.21944857
       9, -17.7671776, -17.367691, -3.16961789
      10, -17.570488, -16.972702, -3.39975595
      11, -17.6153526, -15.6304722, -2.21057653
      12, -17.8949337, -15.7357101, -2.63014317
      13, -17.9462204, -15.9744062, -3.08365226
      14, -17.7554722, -16.2826004, -3.44958639
      15, -17.3737984, -16.577713, -3.62989378
      16, -17.4186649, -15.2354832, -2.44071436
      17, -17.6982441, -15.3407211, -2.86028123
      18, -17.7495308, -15.5794172, -3.31379032
      19, -17.5587826, -15.8876114, -3.67972445
      20, -17.1771107, -16.182724, -3.86003184
** ... 82 like lines cut
*Element, type=R3D4
       1, 1, 2, 3, 4
       2, 4, 3, 5, 6
       3, 6, 5, 7, 8
       4, 8, 7, 9, 10
       5, 11, 1, 4, 12
       6, 12, 4, 6, 13
       7, 13, 6, 8, 14
       8, 14, 8, 10, 15
       9, 16, 11, 12, 17
      10, 17, 12, 13, 18
      11, 18, 13, 14, 19
      12, 19, 14, 15, 20
      13, 21, 16, 17, 22
      14, 22, 17, 18, 23
      15, 23, 18, 19, 24
      16, 24, 19, 20, 25
      17, 26, 21, 22, 27
      18, 27, 22, 23, 28
      19, 28, 23, 24, 29
      20, 29, 24, 25, 30
** ... 55 like lines cut
*Elset, elset=PIPE_TERMINAL_STOP_ALL, generate
1, 75, 1
*Surface, type=ELEMENT, name=PIPE_TERMINAL_STOP_SURF
PIPE_TERMINAL_STOP_ALL, SPOS
*End Part
** Robot-only HIGH terminal stop; CEL material remains open
*Part, name=Pipe_TERMINAL_STOP_HIGH
*Node
       1, 6.27608633, -5.94825697, -5.65262365
       2, 6.23722649, -5.56458235, -5.31121445
       3, 6.34579229, -5.31667519, -5.61977959
       4, 6.38327122, -5.54258728, -5.87859058
       5, 6.42685938, -5.04812479, -5.80939579
       6, 6.46756983, -5.20532656, -6.0474062
       7, 6.27052021, -5.06325388, -5.19791079
       8, 6.33665085, -5.0666728, -5.4613657
       9, 6.36704683, -4.57860231, -5.34307146
      10, 6.40535831, -4.81330633, -5.60947752
      11, 6.58144331, -4.56312513, -6.18421125
      12, 6.53330231, -4.8993721, -6.15803194
      13, 6.48639822, -4.85262394, -5.94950342
      14, 6.49429512, -4.60639381, -5.86038208
      15, 6.58811331, -4.99606991, -6.42228222
      16, 6.52141619, -5.31991053, -6.3165822
      17, 6.44574213, -5.67432833, -6.19029665
      18, 6.65065527, -4.65971994, -6.50541687
      19, 6.5850873, -5.45662498, -6.63546896
      20, 6.51303816, -5.71766949, -6.47788239
** ... 10 like lines cut
*Element, type=R3D4
       1, 1, 2, 3, 4
       2, 4, 3, 5, 6
       3, 2, 7, 8, 3
       4, 9, 10, 8, 7
       5, 11, 12, 13, 14
       6, 6, 12, 15, 16
       7, 6, 16, 17, 4
       8, 18, 15, 12, 11
       9, 13, 5, 10, 14
      10, 16, 19, 20, 17
      11, 21, 22, 17, 20
      12, 9, 23, 14, 10
      13, 14, 23, 24, 11
      14, 24, 25, 18, 11
      15, 18, 25, 26, 27
      16, 27, 26, 28, 29
      17, 12, 6, 5, 13
      18, 22, 1, 4, 17
      19, 20, 19, 30, 21
      20, 18, 27, 29, 15
      21, 29, 28, 30, 19
      22, 29, 19, 16, 15
      23, 5, 3, 8, 10
*Elset, elset=PIPE_TERMINAL_STOP_HIGH_ALL, generate
1, 23, 1
*Surface, type=ELEMENT, name=PIPE_TERMINAL_STOP_HIGH_SURF
PIPE_TERMINAL_STOP_HIGH_ALL, SPOS
*End Part
*Part, name=Pipe_SOLID
*Node
      1,  -16.5284824,  -17.2844334,  -1.96806526
      2,  -18.3441372,  -16.7630806,  -2.62501884
      3,  -13.0335417,  -6.09837723,  -8.83874321
      4,  -11.2178869,  -6.61973047,   -8.1817894
      5,  -6.19710016,  -2.70104122,  -9.94260216
      6,   6.73808718,  -4.29859257,  -6.67496824
      7,   6.27492857,  -5.95239115,  -5.65006161
      8,  -6.66025925,   -4.3548398,    -8.917696
      9,  -16.7201881,  -16.9746914,  -1.60029233
     10,  -17.1037788,  -16.6780949,  -1.41907883
     11,  -17.5764713,  -16.4741192,  -1.47298098
     12,  -18.0116062,  -16.4174194,  -1.74755561
     13,   -18.292593,  -16.5231857,   -2.1692307
     14,  -18.1524296,  -17.0728245,  -2.99279189
     15,  -17.7688389,  -17.3694191,  -3.17400527
     16,  -17.2961483,  -17.5733948,  -3.12010312
     17,  -16.8610115,  -17.6300964,  -2.84552836
     18,  -16.5800266,  -17.5243282,   -2.4238534
     19,  -18.1474476,  -16.3680916,  -2.85515666
     20,  -17.9507599,  -15.9731026,  -3.08529472
** ... 1325 like lines cut
*Element, type=C3D4
   1,  843,  844,  845,  846
   2,  847,  671,  848,  676
   3,  846,  849,  845,  850
   4,  846,  851,  849,  850
   5,  849,  852,  851,  846
   6,  853,  849,  852,  851
   7,  846,  854,  855,  851
   8,  846,  852,  851,  855
   9,  856,  498,  857,  858
  10,  859,  860,  861,  862
  11,  859,  863,  860,  862
  12,  859,  864,  865,  866
  13,  867,  499,  494,  495
  14,  868,  869,  870,  859
  15,  871,  872,  873,   21
  16,  859,  869,  863,  874
  17,  859,  875,  862,  866
  18,  859,  876,  875,  868
  19,  877,  586,  843,  587
  20,  876,  869,  868,  859
** ... 5183 like lines cut
*Nset, nset=PIPE_CEL_BODY, generate
    1,  1345,     1
*Elset, elset=PIPE_CEL_BODY, generate
    1,  5203,     1
*Elset, elset=PIPE_SOLID_ALL, generate
1, 5203, 1
*Surface, type=ELEMENT, name=PIPE_SOLID_SURF
PIPE_SOLID_ALL, S1
PIPE_SOLID_ALL, S2
PIPE_SOLID_ALL, S3
PIPE_SOLID_ALL, S4
** Section: SEC_PIPE_RIGID
*Solid Section, elset=PIPE_CEL_BODY, material=MAT_PIPE_RIGID
,
*End Part
**  
** ROBOT SOURCE: frozen authoritative FreeCAD L2300 STEP; no coordinate scaling
*Part, name=Robot_SOLID
*Node
1, -6.36432737684, -3.40239508722, -9.28804659859
2, -8.33095133323, -3.16006933692, -9.76676559901
3, -8.63166658041, -3.53355346369, -9.8339645832
4, -6.37877713325, -3.40586340707, -9.23044125208
5, -6.39395135738, -3.41788046961, -9.17418706335
6, -6.40952664123, -3.43819020061, -9.12048299996
7, -6.42517101823, -3.46635969001, -9.07047367525
8, -6.44055106727, -3.50178859693, -9.02522492509
9, -6.45533897767, -3.54372177558, -8.98570117553
10, -6.46921957039, -3.59126550998, -8.95274481689
11, -6.48189701527, -3.64340649393, -8.92705821634
12, -6.49310111023, -3.69903342289, -8.90918885195
13, -6.50259305395, -3.75696071375, -8.89951760494
14, -6.51017054663, -3.81595373688, -8.89825057768
15, -6.51567208693, -3.87475516584, -8.90541477928
16, -6.51898041707, -3.9321117475, -8.92085752413
17, -6.52002503199, -3.98680102824, -8.94424965241
18, -6.51878365563, -4.03765740119, -8.9750926505
19, -6.51528276225, -4.08359694853, -9.01272908451
20, -6.50959694859, -4.12364054642, -9.05635687502
** ... 5808 like lines cut
*Element, type=C3D4
1, 1926, 1927, 1928, 1929
2, 1930, 1931, 1932, 1933
3, 1930, 1932, 1931, 1934
4, 1930, 1935, 1936, 1937
5, 1930, 1938, 1933, 1939
6, 1933, 1940, 1936, 1930
7, 1941, 1942, 1943, 1944
8, 1930, 1940, 1935, 1934
9, 1945, 1946, 1947, 1948
10, 1949, 836, 1943, 1950
11, 1951, 1952, 1946, 1953
12, 1952, 1954, 1953, 1955
13, 1952, 1956, 1954, 1955
14, 1952, 1948, 1957, 1947
15, 1958, 1959, 1960, 1961
16, 1947, 1952, 1946, 1951
17, 1962, 1963, 1964, 1965
18, 1966, 1967, 1968, 1969
19, 1967, 1968, 1969, 1962
20, 1962, 1969, 1970, 1968
** ... 29121 like lines cut
*Elset, elset=ROBOT_EXTERIOR_S1
29, 67, 71, 80, 95, 126, 128, 131, 139, 178, 231, 294, 332, 341, 356, 421
423, 442, 448, 451, 460, 461, 553, 555, 563, 714, 787, 828, 855, 918, 927, 1020
1030, 1032, 1064, 1069, 1148, 1168, 1256, 1260, 1295, 1350, 1407, 1464, 1531, 1546, 1628, 1695
1711, 1952, 1953, 1956, 1985, 1986, 1987, 2067, 2241, 2361, 2364, 2389, 2492, 2511, 2517, 2527
2532, 2533, 2536, 2537, 2539, 2540, 2543, 2544, 2550, 2555, 2558, 2562, 2564, 2566, 2570, 2571
2572, 2575, 2577, 2586, 2590, 2593, 2596, 2597, 2599, 2603, 2609, 2610, 2612, 2615, 2617, 2622
2628, 2633, 2644, 2647, 2648, 2649, 2650, 2655, 2664, 2665, 2667, 2669, 2671, 2681, 2683, 2687
2690, 2699, 2701, 2703, 2711, 2714, 2725, 2733, 2735, 2738, 2744, 2747, 2751, 2755, 2756, 2761
2776, 2782, 2793, 2798, 2802, 2808, 2816, 2824, 2826, 2827, 2839, 2847, 2849, 2851, 2858, 2863
2864, 2867, 2868, 2869, 2871, 2874, 2884, 2885, 2886, 2887, 2894, 2895, 2898, 2901, 2904, 2914
2917, 2925, 2927, 2928, 2930, 2944, 2947, 2953, 2954, 2961, 2962, 2968, 2976, 2980, 2988, 2991
2995, 3006, 3007, 3010, 3013, 3016, 3023, 3024, 3034, 3038, 3044, 3046, 3048, 3054, 3055, 3056
3062, 3073, 3074, 3079, 3080, 3090, 3093, 3096, 3099, 3100, 3102, 3109, 3110, 3114, 3116, 3125
3131, 3138, 3139, 3143, 3155, 3163, 3164, 3166, 3167, 3184, 3188, 3192, 3197, 3203, 3204, 3216
3219, 3220, 3222, 3224, 3233, 3241, 3242, 3249, 3253, 3265, 3280, 3295, 3301, 3302, 3306, 3323
3326, 3329, 3330, 3334, 3335, 3336, 3343, 3344, 3345, 3357, 3358, 3366, 3368, 3369, 3370, 3377
3379, 3380, 3386, 3387, 3401, 3406, 3411, 3412, 3415, 3417, 3428, 3430, 3432, 3437, 3438, 3448
3449, 3455, 3457, 3462, 3477, 3480, 3482, 3487, 3489, 3490, 3498, 3499, 3504, 3511, 3514, 3515
3524, 3535, 3551, 3558, 3561, 3563, 3568, 3572, 3577, 3582, 3583, 3586, 3589, 3590, 3595, 3597
3599, 3606, 3607, 3611, 3613, 3617, 3621, 3623, 3632, 3633, 3635, 3636, 3638, 3641, 3644, 3646
** ... 196 like lines cut
*Elset, elset=ROBOT_EXTERIOR_S2
56, 411, 477, 493, 1043, 1079, 1139, 2567, 2757, 2806, 2817, 2957, 2991, 3085, 3144, 3180
3520, 3645, 3955, 4006, 4077, 4191, 4238, 4281, 4650, 4701, 5223, 5878, 5893, 5935, 5942, 5982
6293, 6428, 6482, 6579, 6585, 6805, 6816, 6959, 7117, 7329, 7352, 7378, 7564, 7636, 7727, 7809
7902, 7938, 7954, 8259, 8314, 8322, 8384, 8590, 8633, 8694, 8732, 8746, 8788, 8817, 8993, 9055
9169, 9175, 9209, 9322, 9414, 9594, 9609, 9610, 9615, 9679, 9680, 9684, 9843, 9885, 9910, 9992
10040, 10093, 10107, 10109, 10122, 10154, 10199, 10293, 10526, 10735, 10750, 10938, 11018, 11091, 11231, 11305
11437, 11557, 11739, 11745, 11792, 11872, 11892, 11937, 12079, 12640, 12684, 12689, 12721, 12971, 13256, 13358
13498, 13808, 13817, 13823, 14084, 14312, 14369, 14394, 14415, 14509, 14690, 14773, 15555, 15564, 15897, 15968
16169, 16833, 17051, 17062, 17262, 17428, 17509, 17554, 17936, 18137, 18303, 18517, 18617, 19048, 19344, 20121
20169, 20313, 20315, 20338, 20954, 21347, 21413, 21569, 22304, 22910, 23617, 24746, 24909, 26161, 26637, 26939
27236, 27895, 28176, 28827
*Elset, elset=ROBOT_EXTERIOR_S3
231, 238, 327, 346, 847, 920, 1022, 1046, 1104, 2524, 2622, 2642, 2999, 3152, 3298, 3350
3362, 3374, 3396, 3421, 3449, 3511, 3645, 3700, 3729, 3960, 3972, 3975, 3980, 3997, 4010, 4015
4061, 4087, 4094, 4113, 4120, 4139, 4157, 4163, 4197, 4205, 4213, 4222, 4232, 4238, 4762, 5001
5053, 5253, 5280, 5712, 5724, 6207, 6410, 6597, 6766, 7053, 7223, 7274, 7453, 7675, 7791, 7928
8033, 8088, 8187, 8441, 8733, 8964, 8971, 9024, 9042, 9199, 9476, 9525, 9558, 9565, 9677, 9703
9743, 9845, 9946, 9982, 10022, 10220, 10252, 10281, 10395, 10420, 10464, 10783, 10940, 11026, 11673, 11740
11759, 11947, 12042, 12174, 12196, 12445, 12591, 12603, 12909, 13240, 13328, 13348, 13532, 13536, 13982, 14033
14034, 14151, 14176, 14620, 15222, 16154, 16594, 17864, 19755, 27251
*Elset, elset=ROBOT_EXTERIOR_S4
265, 308, 1793, 2067, 2702, 2737, 2940, 3024, 3038, 3049, 3073, 3243, 3350, 3369, 3380, 3428
3430, 3448, 3460, 3718, 3954, 3965, 3967, 3988, 4005, 4041, 4078, 4104, 4111, 4123, 4148, 4149
5398, 5827, 5985, 6124, 6854, 6952, 7182, 7789, 7929, 7974, 8010, 8725, 8932, 8988, 9048, 9526
10316, 10565, 10659, 10861, 10924, 11005, 11439, 11487, 11910, 12446, 12632, 12761, 13491, 14401, 14510, 14563
14910, 15029, 15141, 15429, 15438, 15872, 15879, 15956, 16121, 16635, 16699, 16811, 17481, 18296, 18500, 18806
18932, 19124, 19458, 19463, 19524, 19647, 20213, 20229, 20907, 21451, 21457, 21511, 21861, 22484, 22991, 23127
23796, 23896, 24658, 24695, 25103, 25671, 26678, 26757, 27669, 28540, 28753, 28762, 28766
*Nset, nset=ROBOT_CEL_BODY, generate
1, 5828, 1
*Elset, elset=ROBOT_CEL_BODY, generate
1, 29141, 1
*Elset, elset=ROBOT_SOLID_ALL, generate
1, 29141, 1
*Surface, type=ELEMENT, name=ROBOT_SOLID_SURF
ROBOT_EXTERIOR_S1, S1
ROBOT_EXTERIOR_S2, S2
ROBOT_EXTERIOR_S3, S3
ROBOT_EXTERIOR_S4, S4
** Section: SEC_ROBOT_RIGID
*Solid Section, elset=ROBOT_CEL_BODY, material=MAT_ROBOT_RIGID
,
*End Part
**  
**
** ASSEMBLY
**
*Assembly, name=Assembly
*Instance, name=Pipe_WALL_HELPER-1, part=Pipe_WALL_HELPER
*End Instance
**  
*Instance, name=Pipe_TERMINAL_STOP-1, part=Pipe_TERMINAL_STOP
*End Instance
**  
*Instance, name=Pipe_TERMINAL_STOP_HIGH-1, part=Pipe_TERMINAL_STOP_HIGH
*End Instance
**  
*Elset, elset=PIPE_TERMINAL_STOP_CEL_ALL, instance=Pipe_TERMINAL_STOP-1, generate
1, 75, 1
*Elset, elset=PIPE_TERMINAL_STOP_HIGH_CEL_ALL, instance=Pipe_TERMINAL_STOP_HIGH-1, generate
1, 23, 1
*Elset, elset=PIPE_WALL_HELPER_CEL_ALL, instance=Pipe_WALL_HELPER-1, generate
1, 764, 1
**  
*Instance, name=Pipe_SOLID-1, part=Pipe_SOLID
*End Instance
**  
*Instance, name=Robot_SOLID-1, part=Robot_SOLID
*End Instance
**  
*Elset, elset=PIPE_SOLID_CEL_ALL, instance=Pipe_SOLID-1, generate
1, 5203, 1
*Elset, elset=ROBOT_SOLID_CEL_ALL, instance=Robot_SOLID-1, generate
1, 29141, 1
**  
*Node
      1,  -5.80302477,  -9.99273777,  -5.95533371
*Node
      2, -7.468174204284, -3.676918015967, -9.550745259298
*Nset, nset=RP_PIPE
 1,
*Nset, nset=RP_ROBOT
 2,
*Elset, elset=PIPE_RIGID_ALL
PIPE_SOLID_CEL_ALL,
PIPE_WALL_HELPER_CEL_ALL,
PIPE_TERMINAL_STOP_CEL_ALL,
PIPE_TERMINAL_STOP_HIGH_CEL_ALL,
*Rigid Body, ref node=RP_PIPE, elset=PIPE_RIGID_ALL
** Constraint: RB_PIPE
** Constraint: RB_ROBOT
*Rigid Body, ref node=RP_ROBOT, elset=ROBOT_SOLID_CEL_ALL
*End Assembly
** Reduced-Hydro: CEL fluid part, material, initialization and CEL contact were removed.
** 
** MATERIALS
** 
*Material, name=MAT_PIPE_RIGID
*Density
 1e-09,
*Elastic
 1e+06, 0.3
*Material, name=MAT_ROBOT_RIGID
*Density
7.80906654321e-09, 
*Elastic
 1e+06, 0.3
** 
** INTERACTION PROPERTIES
** 
*Surface Interaction, name=PROP_CEL_HARD
*Friction
0.03,
*Surface Behavior, pressure-overclosure=HARD
*Contact Damping, definition=CRITICAL DAMPING FRACTION, tangent fraction=0.0
0.50
** 
** BOUNDARY CONDITIONS
** 
** Name: BC_PIPE_FIXED Type: Symmetry/Antisymmetry/Encastre
*Boundary
RP_PIPE, ENCASTRE
** ----------------------------------------------------------------
** 
** STEP: Step_Drive
** 
*Contact
*Contact Inclusions
ROBOT_SOLID-1.ROBOT_SOLID_SURF, Pipe_WALL_HELPER-1.PIPE_WALL_HELPER_SURF
*Contact Property Assignment
ROBOT_SOLID-1.ROBOT_SOLID_SURF, Pipe_WALL_HELPER-1.PIPE_WALL_HELPER_SURF, PROP_CEL_HARD
** REDUCED-HYDRO BASELINE; CEL REMOVED; production external Magpylib retained.
** FREE-TRANSLATION PARAMETERS: phase=248.0 deg; cone=30 deg; Bias40; gradient=6.000 mT=0.006000 T; server-side analytic field
** SOCKET BASELINE JOB: Job_RouteA_CEL_Socket_ConnectorFixed_Capsule_0p003
** Local centerline frame at COM RP (metadata only); COM translations constrained in calibration
** COM-fixed RP_ROBOT = (-7.468174204284, -3.676918015967, -9.550745259298) mm; volume-weighted mesh COM
** tangent-X = (-0.928048296, 0.179421111, -0.326396119)
** transported-Y = (0.140416425, 0.988230515, -0.0606933022)
** binormal-Z = (0.312362773, -0.102386426, -0.944429202)
** CSF rho=1.0007e-09 tonne/mm^3; mu=7.1e-10 N*s/mm^2; c0=1480000 mm/s
*Step, name=Step_Drive, nlgeom=YES
*Dynamic, Explicit, DIRECT
1.0e-7, 0.008333
*Bulk Viscosity
0.06, 1.2
** 
** BOUNDARY CONDITIONS
** 
** REDUCED-HYDRO LOAD INTERFACE: magnetic Socket loads plus dissipative body-following hydro loads.
** SOCKET_* remain production Magpylib loads; HYDRO_* are local dissipative loads from RP V/VR sensors.
** DOF 1..3: Fx,Fy,Fz [N]; DOF 4..6: Mx,My,Mz [N*mm].
** Abaqus uses *CLOAD for both concentrated forces and moments;
** CFORCE/CMOMENT are output quantities, not input keywords.
*Amplitude, name=SOCKET_FX, definition=USER
*Amplitude, name=SOCKET_FY, definition=USER
*Amplitude, name=SOCKET_FZ, definition=USER
*Amplitude, name=SOCKET_MX, definition=USER
*Amplitude, name=SOCKET_MY, definition=USER
*Amplitude, name=SOCKET_MZ, definition=USER
*Cload, amplitude=SOCKET_FX
RP_ROBOT, 1, 1.
*Cload, amplitude=SOCKET_FY
RP_ROBOT, 2, 1.
*Cload, amplitude=SOCKET_FZ
RP_ROBOT, 3, 1.
*Cload, amplitude=SOCKET_MX
RP_ROBOT, 4, 1.
*Cload, amplitude=SOCKET_MY
RP_ROBOT, 5, 1.
*Cload, amplitude=SOCKET_MZ
RP_ROBOT, 6, 1.
*Amplitude, name=HYDRO_FX, definition=USER
*Amplitude, name=HYDRO_FY, definition=USER
*Amplitude, name=HYDRO_FZ, definition=USER
*Amplitude, name=HYDRO_MX, definition=USER
*Amplitude, name=HYDRO_MY, definition=USER
*Amplitude, name=HYDRO_MZ, definition=USER
*Cload, amplitude=HYDRO_FX
RP_ROBOT, 1, 1.
*Cload, amplitude=HYDRO_FY
RP_ROBOT, 2, 1.
*Cload, amplitude=HYDRO_FZ
RP_ROBOT, 3, 1.
*Cload, amplitude=HYDRO_MX
RP_ROBOT, 4, 1.
*Cload, amplitude=HYDRO_MY
RP_ROBOT, 5, 1.
*Cload, amplitude=HYDRO_MZ
RP_ROBOT, 6, 1.
** 
** OUTPUT REQUESTS
** 
*Restart, write, number interval=1, time marks=NO
** 
** FIELD OUTPUT: F-Output-1
** 
** IMPACT ENERGY DIAGNOSTIC: preserve all existing physics; save visualization/contact fields every 25 us; RP and contact-resultant history remains every increment.
*Output, field, time interval=2.5e-5, time marks=NO
*Node Output
U
*Node Output, nset=RP_ROBOT
U, UR, V, VR, A, AR, CF, RF, RM
*Contact Output, general contact
CSTRESS, CFORCE
*Contact Output, surface=ROBOT_SOLID-1.ROBOT_SOLID_SURF
CDISP
*Output, history, frequency=1
*Node Output, nset=RP_ROBOT
COORD, U, UR, V, VR, A, AR, CF, RF, RM
*Contact Output, surface=ROBOT_SOLID-1.ROBOT_SOLID_SURF
CFN, CFS, CFT
*Contact Output, surface=Pipe_WALL_HELPER-1.PIPE_WALL_HELPER_SURF
CFN, CFS, CFT
*Output, history, time interval=5.0e-5
*Energy Output, variable=ALL
*Output, history, frequency=1, sensor, name=RP_U1
*Node Output, nset=RP_ROBOT
U1
*Output, history, frequency=1, sensor, name=RP_U2
*Node Output, nset=RP_ROBOT
U2
*Output, history, frequency=1, sensor, name=RP_U3
*Node Output, nset=RP_ROBOT
U3
*Output, history, frequency=1, sensor, name=RP_UR1
*Node Output, nset=RP_ROBOT
UR1
*Output, history, frequency=1, sensor, name=RP_UR2
*Node Output, nset=RP_ROBOT
UR2
*Output, history, frequency=1, sensor, name=RP_UR3
*Node Output, nset=RP_ROBOT
UR3
*Output, history, frequency=1, sensor, name=RP_V1
*Node Output, nset=RP_ROBOT
V1
*Output, history, frequency=1, sensor, name=RP_V2
*Node Output, nset=RP_ROBOT
V2
*Output, history, frequency=1, sensor, name=RP_V3
*Node Output, nset=RP_ROBOT
V3
*Output, history, frequency=1, sensor, name=RP_VR1
*Node Output, nset=RP_ROBOT
VR1
*Output, history, frequency=1, sensor, name=RP_VR2
*Node Output, nset=RP_ROBOT
VR2
*Output, history, frequency=1, sensor, name=RP_VR3
*Node Output, nset=RP_ROBOT
VR3
*End Step
