** R014 exterior mesh analytic-field probe; 10 mg; D055; gradient 6 mT; Bias40; forward
** RESTORED ROBOT: _robot_true_R014_source.inp mesh; exact 6 mg; 2.01 mm wall helper offset=0.005 mm
** HIGH-WOBBLE 6 ms PROBE: only damping 0.055 -> 0.020; all other physics unchanged
** BOUNDED MEDIUM PROBE: 6 ms; no geometry/physics change; output 2 us
** COPEN PRECHECK: physics unchanged; robot exterior-only surface output added
** ROBOT CONTACT SANITIZED: TRUE EXTERIOR FACES ONLY
** ROBOT PART TRANSPLANTED FROM UNROUNDED BASE; no stacked fillet
** donor=_robot_true_R014_source.inp
** High-end robot-only stop added; CEL remains open; band=0.8 mm, faces=23
** CAPSULE/FILLET VARIANT; rf=0.1 mm; source=CEL_CurrentCenterline_Cone15_Z110_PolarityPlus_Mu003_Damp055_AfterBendReverse_015.inp
** MATRIX VARIANT: mu003
** Z=110 mm single-variable probe; 5 Hz fixed; m_robot=1.168e-3 A*m^2; adaptive-lead=0.
** POLARITY-PLUS CLOSED-LOOP 0.03 s: +robot_axis_global end assumed N; adaptive-lead=0.
** FULL 3D LIVE-MAGNETIC FORCE/TORQUE CLOSED-LOOP: the force is projected onto the local DXF tangent; torque remains live from Magpylib; endpoint caps are retained in the wall helper; duration=0.008333 s
** FULL 3D LIVE-MAGNETIC FORCE/TORQUE CLOSED-LOOP: the force is projected onto the local DXF tangent; torque remains live from Magpylib; endpoint caps are retained in the wall helper; duration=0.006 s
** FULL 3D LIVE-MAGNETIC FORCE/TORQUE CLOSED-LOOP: the force is projected onto the local DXF tangent; torque remains live from Magpylib; endpoint caps are retained in the wall helper; duration=0.008333 s
** Terminal robot-only outlet stop added at low-s end; CEL remains open; cap_band=0.8 mm, faces=75
** FULL 3D LIVE-MAGNETIC FORCE/TORQUE CLOSED-LOOP: the force is projected onto the local DXF tangent; torque remains live from Magpylib; endpoint caps are retained in the wall helper; duration=0.008333 s
** FORWARD-ONLY DIAGNOSTIC: live Magpylib force projected onto the local DXF pipe tangent; magnetic torque is disabled; 0.010 s probe
** WALL/CEL FACTORIAL DIAGNOSTIC; only contact inclusions changed
** CEL boundary-wall probe: Pipe_SOLID retained as fixed mass but excluded from contact; helper R3D4 wall offset=0.2 mm, end caps removed=98
*Heading
** AUTHORIZED 8.333 ms WALL-ON WOBBLE-SURVIVAL PROBE: Wobble_F30_G6L45_WallOn_Free_0083_WobbleSurvival; G6/L45; f=30 Hz
** WALL-ON FREE-TRANSLATION PROBE: Wobble_F30_G6L45_WallOn_Free_0083_WobbleSurvival; spin=30 Hz; duration=8.333 ms
** WALL/CEL FACTORIAL: Wobble_F30_G6L45_WallOn_Free_0083_WobbleSurvival; Wall=ON; CEL=ON; 1.8 ms; phase=248 deg; gradient=6.000 mT=0.006000 T; spin=30 Hz
** FREE-TRANSLATION PROBE: F30; cone30; B=10 mT; Wall-ON; CEL-ON; translations fixed, rotations free
** Robot refined contact mesh, centerline translation + tangent-following orientation
** Job name: Job_RouteA_CEL_SOLID_robotfine Model name: RouteA_SolidCEL_Probe
** Generated by: Abaqus/CAE 2025
*Preprint, echo=NO, model=NO, history=NO, contact=NO
**
** PARTS
**
**  
*Part, name=Pipe_WALL_HELPER
*Node
       1, -16.5312897005, -17.2868904576, -1.9669035138
       2, -16.970186333, -17.1510059578, -2.10575531598
       3, -17.0595094318, -16.9508545594, -1.83857117776
       4, -16.7227038313, -16.9776193944, -1.5996919504
       5, -16.3317931628, -16.889444982, -2.19820316494
       6, -16.5234998969, -16.5797011677, -1.83043029113
       7, -17.3244134201, -17.031705164, -2.20373843566
       8, -17.3635636271, -16.8736908617, -1.96599708767
       9, -17.2092992278, -16.7707359574, -1.65744899091
      10, -17.1057082159, -16.6814764918, -1.41875507815
      11, -16.9070916517, -16.2831055879, -1.64921683443
      12, -17.5776795246, -16.4778127316, -1.47257492853
      13, -17.4839078321, -16.6879875554, -1.7501234811
      14, -17.379782511, -16.0791305094, -1.70311896567
      15, -17.9256078331, -16.7447941558, -2.22512220262
      16, -17.7599030349, -16.6624138527, -1.94211206892
      17, -17.585744927, -16.8181869606, -2.06062148565
      18, -17.6289197219, -16.9097091641, -2.2546040873
      19, -17.3339940228, -17.1778080593, -2.46268508992
      20, -17.6517774276, -17.044993662, -2.50632761859
** ... 776 like lines cut
*Element, type=R3D4
       1, 1, 2, 3, 4
       2, 5, 1, 4, 6
       3, 2, 7, 8, 3
       4, 4, 3, 9, 10
       5, 6, 4, 10, 11
       6, 12, 10, 9, 13
       7, 11, 10, 12, 14
       8, 15, 16, 17, 18
       9, 7, 19, 20, 18
      10, 7, 2, 21, 19
      11, 22, 15, 18, 20
      12, 17, 16, 13, 8
      13, 19, 21, 23, 24
      14, 25, 23, 21, 26
      15, 27, 25, 26, 28
      16, 12, 13, 16, 29
      17, 14, 12, 29, 30
      18, 16, 15, 31, 29
      19, 31, 15, 22, 32
      20, 22, 33, 34, 32
** ... 744 like lines cut
*Elset, elset=PIPE_WALL_HELPER_ALL, generate
1, 764, 1
*Surface, type=ELEMENT, name=PIPE_WALL_HELPER_SURF
PIPE_WALL_HELPER_ALL, SPOS
*End Part
** Robot-only terminal stop; not included in CEL material contact
*Part, name=Pipe_TERMINAL_STOP
*Node
       1, -17.8120422, -16.0254612, -1.98043847
       2, -18.0087299, -16.4204502, -1.75030053
       3, -18.288311, -16.5256882, -2.16986728
       4, -18.0916214, -16.1306992, -2.40000534
       5, -18.3395977, -16.7643833, -2.62337637
       6, -18.1429081, -16.3693943, -2.85351443
       7, -18.1488495, -17.0725784, -2.9893105
       8, -17.9521599, -16.6775894, -3.21944857
       9, -17.7671776, -17.367691, -3.16961789
      10, -17.570488, -16.972702, -3.39975595
      11, -17.6153526, -15.6304722, -2.21057653
      12, -17.8949337, -15.7357101, -2.63014317
      13, -17.9462204, -15.9744062, -3.08365226
      14, -17.7554722, -16.2826004, -3.44958639
      15, -17.3737984, -16.577713, -3.62989378
      16, -17.4186649, -15.2354832, -2.44071436
      17, -17.6982441, -15.3407211, -2.86028123
      18, -17.7495308, -15.5794172, -3.31379032
      19, -17.5587826, -15.8876114, -3.67972445
      20, -17.1771107, -16.182724, -3.86003184
** ... 82 like lines cut
*Element, type=R3D4
       1, 1, 2, 3, 4
       2, 4, 3, 5, 6
       3, 6, 5, 7, 8
       4, 8, 7, 9, 10
       5, 11, 1, 4, 12
       6, 12, 4, 6, 13
       7, 13, 6, 8, 14
       8, 14, 8, 10, 15
       9, 16, 11, 12, 17
      10, 17, 12, 13, 18
      11, 18, 13, 14, 19
      12, 19, 14, 15, 20
      13, 21, 16, 17, 22
      14, 22, 17, 18, 23
      15, 23, 18, 19, 24
      16, 24, 19, 20, 25
      17, 26, 21, 22, 27
      18, 27, 22, 23, 28
      19, 28, 23, 24, 29
      20, 29, 24, 25, 30
** ... 55 like lines cut
*Elset, elset=PIPE_TERMINAL_STOP_ALL, generate
1, 75, 1
*Surface, type=ELEMENT, name=PIPE_TERMINAL_STOP_SURF
PIPE_TERMINAL_STOP_ALL, SPOS
*End Part
** Robot-only HIGH terminal stop; CEL material remains open
*Part, name=Pipe_TERMINAL_STOP_HIGH
*Node
       1, 6.27608633, -5.94825697, -5.65262365
       2, 6.23722649, -5.56458235, -5.31121445
       3, 6.34579229, -5.31667519, -5.61977959
       4, 6.38327122, -5.54258728, -5.87859058
       5, 6.42685938, -5.04812479, -5.80939579
       6, 6.46756983, -5.20532656, -6.0474062
       7, 6.27052021, -5.06325388, -5.19791079
       8, 6.33665085, -5.0666728, -5.4613657
       9, 6.36704683, -4.57860231, -5.34307146
      10, 6.40535831, -4.81330633, -5.60947752
      11, 6.58144331, -4.56312513, -6.18421125
      12, 6.53330231, -4.8993721, -6.15803194
      13, 6.48639822, -4.85262394, -5.94950342
      14, 6.49429512, -4.60639381, -5.86038208
      15, 6.58811331, -4.99606991, -6.42228222
      16, 6.52141619, -5.31991053, -6.3165822
      17, 6.44574213, -5.67432833, -6.19029665
      18, 6.65065527, -4.65971994, -6.50541687
      19, 6.5850873, -5.45662498, -6.63546896
      20, 6.51303816, -5.71766949, -6.47788239
** ... 10 like lines cut
*Element, type=R3D4
       1, 1, 2, 3, 4
       2, 4, 3, 5, 6
       3, 2, 7, 8, 3
       4, 9, 10, 8, 7
       5, 11, 12, 13, 14
       6, 6, 12, 15, 16
       7, 6, 16, 17, 4
       8, 18, 15, 12, 11
       9, 13, 5, 10, 14
      10, 16, 19, 20, 17
      11, 21, 22, 17, 20
      12, 9, 23, 14, 10
      13, 14, 23, 24, 11
      14, 24, 25, 18, 11
      15, 18, 25, 26, 27
      16, 27, 26, 28, 29
      17, 12, 6, 5, 13
      18, 22, 1, 4, 17
      19, 20, 19, 30, 21
      20, 18, 27, 29, 15
      21, 29, 28, 30, 19
      22, 29, 19, 16, 15
      23, 5, 3, 8, 10
*Elset, elset=PIPE_TERMINAL_STOP_HIGH_ALL, generate
1, 23, 1
*Surface, type=ELEMENT, name=PIPE_TERMINAL_STOP_HIGH_SURF
PIPE_TERMINAL_STOP_HIGH_ALL, SPOS
*End Part
*Part, name=Pipe_SOLID
*Node
      1,  -16.5284824,  -17.2844334,  -1.96806526
      2,  -18.3441372,  -16.7630806,  -2.62501884
      3,  -13.0335417,  -6.09837723,  -8.83874321
      4,  -11.2178869,  -6.61973047,   -8.1817894
      5,  -6.19710016,  -2.70104122,  -9.94260216
      6,   6.73808718,  -4.29859257,  -6.67496824
      7,   6.27492857,  -5.95239115,  -5.65006161
      8,  -6.66025925,   -4.3548398,    -8.917696
      9,  -16.7201881,  -16.9746914,  -1.60029233
     10,  -17.1037788,  -16.6780949,  -1.41907883
     11,  -17.5764713,  -16.4741192,  -1.47298098
     12,  -18.0116062,  -16.4174194,  -1.74755561
     13,   -18.292593,  -16.5231857,   -2.1692307
     14,  -18.1524296,  -17.0728245,  -2.99279189
     15,  -17.7688389,  -17.3694191,  -3.17400527
     16,  -17.2961483,  -17.5733948,  -3.12010312
     17,  -16.8610115,  -17.6300964,  -2.84552836
     18,  -16.5800266,  -17.5243282,   -2.4238534
     19,  -18.1474476,  -16.3680916,  -2.85515666
     20,  -17.9507599,  -15.9731026,  -3.08529472
** ... 1325 like lines cut
*Element, type=C3D4
   1,  843,  844,  845,  846
   2,  847,  671,  848,  676
   3,  846,  849,  845,  850
   4,  846,  851,  849,  850
   5,  849,  852,  851,  846
   6,  853,  849,  852,  851
   7,  846,  854,  855,  851
   8,  846,  852,  851,  855
   9,  856,  498,  857,  858
  10,  859,  860,  861,  862
  11,  859,  863,  860,  862
  12,  859,  864,  865,  866
  13,  867,  499,  494,  495
  14,  868,  869,  870,  859
  15,  871,  872,  873,   21
  16,  859,  869,  863,  874
  17,  859,  875,  862,  866
  18,  859,  876,  875,  868
  19,  877,  586,  843,  587
  20,  876,  869,  868,  859
** ... 5183 like lines cut
*Nset, nset=PIPE_CEL_BODY, generate
    1,  1345,     1
*Elset, elset=PIPE_CEL_BODY, generate
    1,  5203,     1
*Elset, elset=PIPE_SOLID_ALL, generate
1, 5203, 1
*Surface, type=ELEMENT, name=PIPE_SOLID_SURF
PIPE_SOLID_ALL, S1
PIPE_SOLID_ALL, S2
PIPE_SOLID_ALL, S3
PIPE_SOLID_ALL, S4
** Section: SEC_PIPE_RIGID
*Solid Section, elset=PIPE_CEL_BODY, material=MAT_PIPE_RIGID
,
*End Part
**  
** ROBOT SOURCE: authoritative FreeCAD STEP; no coordinate scaling
*Part, name=Robot_SOLID
*Node
1, -6.61608497867, -3.37137372721, -9.34932986889
2, -7.95298450278, -3.20664209196, -9.67476026028
3, -8.40105505223, -3.56196922228, -9.77782872667
4, -6.62449083892, -3.37237364442, -9.31530393624
5, -6.63319310527, -3.37636143055, -9.28157278667
6, -6.64212735131, -3.38330757524, -9.248386152
7, -6.65122743197, -3.39316067801, -9.21598974388
8, -6.6604259721, -3.40584774651, -9.18462339749
9, -6.66965486616, -3.42127485174, -9.15451935047
10, -6.67884579544, -3.43932784183, -9.12590047945
11, -6.68793070318, -3.45987296894, -9.09897866548
12, -6.69684233196, -3.48275819783, -9.07395324897
13, -6.7055147043, -3.50781404108, -9.05100947783
14, -6.7138836113, -3.53485501962, -9.03031723963
15, -6.72188710095, -3.56368094448, -9.01202970437
16, -6.72946590541, -3.5940783662, -8.99628230268
17, -6.73656391772, -3.62582225955, -8.9831916205
18, -6.7431285895, -3.65867757905, -8.97285455256
19, -6.74911131333, -3.69240109846, -8.96534766258
20, -6.75446780499, -3.72674313108, -8.96072648399
** ... 15195 like lines cut
*Element, type=C3D4
1, 4470, 4471, 4472, 4473
2, 4470, 4474, 4475, 4476
3, 4470, 4472, 4477, 4478
4, 4470, 4479, 4480, 4475
5, 4470, 4475, 4474, 4479
6, 4481, 4482, 4483, 4484
7, 4485, 4481, 4486, 4482
8, 4482, 4487, 4488, 4485
9, 4482, 4472, 4483, 4484
10, 4482, 4472, 4489, 4490
11, 4491, 4492, 4493, 4494
12, 4495, 4496, 4497, 4498
13, 4493, 4499, 4500, 4492
14, 4493, 4501, 4492, 4491
15, 4502, 4503, 4504, 1601
16, 4493, 4501, 4505, 4506
17, 4493, 4507, 4501, 4506
18, 4493, 4508, 4501, 4507
19, 4493, 4479, 4501, 4508
20, 4494, 4492, 4493, 4500
** ... 78004 like lines cut
*Elset, elset=ROBOT_EXTERIOR_S1
90, 102, 135, 183, 187, 243, 281, 296, 313, 331, 366, 433, 447, 547, 576, 592
807, 810, 824, 839, 858, 860, 864, 867, 904, 924, 974, 1083, 1088, 1147, 1285, 1337
1361, 1431, 1460, 1478, 1482, 1571, 1574, 1588, 1649, 1669, 1698, 1744, 1856, 1928, 1954, 1990
2045, 2082, 2085, 2100, 2101, 2183, 2195, 2272, 2352, 2354, 2363, 2430, 2448, 2479, 2565, 2585
2654, 2656, 2672, 2765, 2796, 3007, 3075, 3096, 3126, 3144, 3170, 3274, 3390, 3465, 3478, 3572
3585, 3588, 3696, 3713, 3856, 3963, 4078, 4285, 4289, 4347, 4348, 4369, 4382, 4393, 4444, 4466
4471, 4580, 4594, 4602, 4605, 4682, 4687, 4732, 4748, 4749, 4769, 4810, 4814, 4863, 4931, 4940
4949, 5096, 5113, 5206, 5350, 5375, 5443, 5503, 5525, 5593, 5709, 5710, 5713, 5762, 5769, 5824
5912, 5926, 6056, 6158, 6206, 6223, 6284, 6294, 6322, 6334, 6351, 6410, 6411, 6489, 6544, 6562
6563, 6569, 6572, 6573, 6576, 6578, 6586, 6591, 6604, 6607, 6615, 6618, 6621, 6628, 6629, 6642
6644, 6649, 6650, 6652, 6660, 6661, 6668, 6672, 6676, 6678, 6685, 6689, 6693, 6699, 6714, 6715
6717, 6720, 6725, 6726, 6737, 6739, 6741, 6742, 6746, 6747, 6749, 6753, 6763, 6764, 6766, 6767
6770, 6771, 6772, 6773, 6778, 6782, 6783, 6787, 6789, 6791, 6793, 6796, 6802, 6821, 6824, 6826
6832, 6837, 6838, 6840, 6841, 6844, 6846, 6847, 6855, 6859, 6862, 6863, 6864, 6865, 6866, 6873
6876, 6877, 6879, 6888, 6899, 6900, 6902, 6903, 6910, 6912, 6917, 6918, 6929, 6930, 6935, 6936
6942, 6944, 6945, 6953, 6956, 6963, 6966, 6969, 6970, 6973, 6981, 6988, 6990, 6991, 6995, 6997
6998, 7008, 7009, 7010, 7013, 7015, 7025, 7028, 7036, 7039, 7047, 7048, 7052, 7053, 7054, 7059
7071, 7072, 7078, 7079, 7080, 7084, 7086, 7087, 7091, 7094, 7096, 7097, 7100, 7101, 7102, 7103
7104, 7106, 7108, 7109, 7115, 7118, 7119, 7121, 7123, 7124, 7126, 7130, 7132, 7135, 7136, 7137
7141, 7142, 7144, 7147, 7148, 7149, 7151, 7153, 7158, 7166, 7167, 7169, 7176, 7178, 7180, 7182
** ... 478 like lines cut
*Elset, elset=ROBOT_EXTERIOR_S2
52, 151, 979, 1100, 1229, 1329, 1331, 1643, 2087, 2813, 3256, 3878, 3959, 4003, 4064, 4160
4189, 4248, 4272, 4291, 4348, 4390, 4426, 4520, 4568, 4601, 4703, 4904, 5047, 5660, 5669, 5835
5907, 5984, 6395, 6662, 6736, 6778, 6794, 6838, 7113, 7156, 7194, 7245, 7293, 7295, 7318, 7398
7416, 7442, 7482, 7585, 7621, 7838, 7845, 7875, 8191, 8337, 8668, 8764, 8783, 8827, 8837, 8934
8958, 9076, 9121, 9156, 9264, 9358, 9391, 9683, 9728, 9761, 9779, 9914, 10037, 10497, 10672, 10808
10936, 11054, 11183, 11199, 11224, 11286, 11321, 11417, 11508, 11526, 11706, 11819, 12117, 13124, 13253, 13432
13520, 13532, 13634, 13768, 14003, 14260, 14427, 14887, 15374, 15444, 15468, 15699, 16012, 16093, 16281, 16287
16470, 16547, 16590, 16699, 16905, 17187, 17262, 17332, 17400, 17455, 17465, 17571, 17767, 17781, 17823, 17844
17907, 17920, 18014, 18034, 18493, 18523, 18561, 18637, 18665, 18731, 18750, 18858, 18979, 19197, 19499, 19555
19674, 19679, 19772, 19848, 19879, 19895, 19945, 20020, 20068, 20085, 20127, 20133, 20748, 20752, 20860, 20964
21039, 21081, 21100, 21223, 21469, 21622, 21845, 21872, 21995, 22004, 22068, 22338, 22515, 22589, 22735, 22815
23057, 23089, 23115, 23229, 23240, 23299, 23305, 23401, 23534, 23698, 23855, 23906, 24052, 24077, 24087, 24181
24224, 24226, 24292, 24563, 24627, 24733, 24741, 25021, 25039, 25058, 25274, 25474, 25683, 25695, 25755, 25952
25996, 26027, 26046, 26075, 26177, 26317, 26439, 26755, 26807, 26964, 27053, 27090, 27427, 27515, 27539, 27592
27816, 28381, 28415, 28442, 28714, 28782, 28816, 28825, 28886, 28887, 28919, 29099, 29224, 29238, 29251, 29290
29337, 29339, 29347, 29353, 29451, 29532, 29627, 29659, 29823, 29934, 29968, 30142, 30281, 30296, 30513, 30544
30558, 30746, 31134, 31222, 31257, 31459, 31736, 31978, 32032, 32048, 32164, 32322, 32364, 32584, 32632, 32704
32747, 32837, 32859, 32962, 33114, 33371, 33484, 34204, 34302, 34379, 34399, 34418, 34571, 34587, 34822, 34838
34865, 34881, 35213, 35268, 35508, 35867, 35956, 36127, 36239, 36297, 36409, 36484, 36609, 37172, 37227, 37290
37374, 37659, 38105, 38125, 39270, 39762, 39888, 40278, 40320, 40741, 40899, 41025, 41074, 41363, 42149, 42431
** ... 6 like lines cut
*Elset, elset=ROBOT_EXTERIOR_S3
81, 822, 1356, 1800, 2455, 2690, 3093, 3282, 4092, 4157, 4362, 4364, 4395, 4457, 5081, 5088
5399, 5535, 5592, 5879, 6628, 6636, 6655, 6785, 6953, 7075, 7112, 7452, 7532, 7546, 7824, 7846
7874, 7913, 8016, 8021, 8032, 8159, 8415, 8421, 8427, 8508, 8528, 8539, 8733, 8745, 8830, 8842
8911, 8936, 8966, 8980, 8987, 9064, 9122, 9145, 9193, 9215, 9267, 9268, 9324, 9354, 9448, 9473
9596, 9609, 9610, 9686, 9716, 9775, 9873, 9920, 10029, 10445, 10563, 10733, 11040, 11132, 11141, 11153
11162, 11205, 11206, 11215, 11241, 11255, 11263, 11279, 11295, 11297, 11305, 11339, 11360, 11373, 11380, 11401
11410, 11415, 11448, 11452, 11464, 11477, 11498, 11499, 11513, 11525, 11545, 11547, 11582, 11583, 11598, 11603
11722, 12306, 12308, 12371, 12873, 13029, 13087, 13482, 13504, 13508, 13722, 13769, 14006, 14106, 14356, 14690
14847, 14944, 15049, 15105, 15359, 15477, 15543, 15647, 15746, 15913, 15925, 16024, 16113, 16242, 16273, 16305
16367, 16418, 16444, 16456, 16536, 16763, 16813, 16881, 16917, 16927, 17045, 17079, 17082, 17086, 17102, 17119
17200, 17236, 17255, 17415, 17421, 17467, 17512, 17736, 17883, 17892, 17968, 17995, 18015, 18075, 18084, 18094
18202, 18312, 18376, 18399, 18478, 18570, 18585, 18829, 18887, 18905, 18993, 19114, 19160, 19398, 19562, 19564
19587, 19690, 20090, 20243, 20487, 20780, 20793, 20801, 20832, 20960, 21191, 21486, 21541, 21599, 21627, 21693
21740, 22015, 22498, 22570, 22763, 22771, 23284, 23298, 23331, 23431, 23530, 23666, 23863, 24075, 24080, 24169
24609, 24676, 24757, 24759, 24783, 25171, 25401, 25468, 25603, 26104, 26116, 26362, 26374, 26571, 26572, 26747
26839, 27149, 27334, 27430, 27627, 27757, 27819, 28081, 28206, 28234, 28368, 28453, 28566, 28824, 28831, 28852
28856, 28859, 28862, 28915, 28916, 28933, 28987, 29066, 29124, 29302, 29310, 29331, 29342, 29691, 29713, 29922
30022, 30336, 30532, 30790, 30813, 30819, 30872, 31317, 31333, 31684, 32071, 32078, 32158, 32363, 32966, 32985
33161, 33507, 33734, 33858, 34016, 34405, 34532, 34566, 34632, 34647, 34670, 34905, 34978, 35066, 35121, 35285
35488, 35503, 35516, 36278, 36325, 36541, 36910, 37549, 38729, 39216, 39456, 42672, 45937, 50043, 50047, 54286
55216, 55814, 57020, 57825, 60595, 62328, 62622
*Elset, elset=ROBOT_EXTERIOR_S4
962, 1049, 1268, 1549, 1625, 1789, 3127, 4179, 5530, 6123, 6753, 6783, 6897, 6938, 6959, 7266
7786, 8289, 8348, 8364, 8379, 8390, 8455, 8502, 8546, 8581, 8601, 8629, 8758, 8837, 8872, 9086
9156, 9184, 9190, 9250, 9379, 9501, 10454, 10456, 10828, 11131, 11168, 11196, 11239, 11251, 11277, 11311
11353, 11354, 11365, 11369, 11408, 11427, 11488, 11529, 11559, 11566, 11594, 11608, 11762, 13803, 13875, 15470
15864, 16141, 16243, 16276, 16466, 16786, 16893, 16987, 17048, 17061, 17072, 17156, 17572, 17776, 18159, 18260
18609, 18641, 18797, 18910, 18922, 19144, 19513, 19611, 20160, 20189, 20838, 21715, 22173, 22284, 22352, 22522
22691, 22743, 23040, 23367, 23566, 23625, 23647, 24698, 24871, 25219, 26077, 26141, 26562, 26608, 26687, 28429
28717, 28759, 28835, 29140, 29294, 29336, 30061, 30620, 30780, 31347, 31413, 32302, 32964, 33032, 33362, 33622
33829, 34339, 34627, 35347, 37362, 38008, 38166, 38249, 38252, 38403, 38426, 38471, 38645, 38744, 38947, 39139
39160, 39231, 39288, 39408, 39607, 39618, 40399, 40434, 40556, 40660, 40709, 40733, 40831, 41918, 42683, 42934
43112, 43675, 43961, 43976, 43977, 44380, 44396, 44501, 46019, 46543, 47264, 47542, 47855, 48012, 48291, 48632
48773, 49482, 50036, 50854, 50900, 51223, 51292, 51463, 51611, 51859, 53793, 54536, 54567, 54675, 55376, 55430
55642, 55831, 56305, 57065, 57103, 57574, 57641, 57999, 59308, 59783, 60020, 60384, 60412, 60717, 61650, 61818
62373, 62679, 62890, 62934, 63027, 63501, 65764, 66809, 67529, 68854, 68939, 69107, 69518, 69666, 70341, 72116
72134, 72135, 72247, 72959, 73228, 74178, 77891
*Nset, nset=ROBOT_CEL_BODY, generate
1, 15215, 1
*Elset, elset=ROBOT_CEL_BODY, generate
1, 78024, 1
*Elset, elset=ROBOT_SOLID_ALL, generate
1, 78024, 1
*Surface, type=ELEMENT, name=ROBOT_SOLID_SURF
ROBOT_EXTERIOR_S1, S1
ROBOT_EXTERIOR_S2, S2
ROBOT_EXTERIOR_S3, S3
ROBOT_EXTERIOR_S4, S4
** Section: SEC_ROBOT_RIGID
*Solid Section, elset=ROBOT_CEL_BODY, material=MAT_ROBOT_RIGID
,
*End Part
**  
**
** ASSEMBLY
**
*Assembly, name=Assembly
*Instance, name=Pipe_WALL_HELPER-1, part=Pipe_WALL_HELPER
*End Instance
**  
*Instance, name=Pipe_TERMINAL_STOP-1, part=Pipe_TERMINAL_STOP
*End Instance
**  
*Instance, name=Pipe_TERMINAL_STOP_HIGH-1, part=Pipe_TERMINAL_STOP_HIGH
*End Instance
**  
*Elset, elset=PIPE_TERMINAL_STOP_CEL_ALL, instance=Pipe_TERMINAL_STOP-1, generate
1, 75, 1
*Elset, elset=PIPE_TERMINAL_STOP_HIGH_CEL_ALL, instance=Pipe_TERMINAL_STOP_HIGH-1, generate
1, 23, 1
*Elset, elset=PIPE_WALL_HELPER_CEL_ALL, instance=Pipe_WALL_HELPER-1, generate
1, 764, 1
**  
*Instance, name=Pipe_SOLID-1, part=Pipe_SOLID
*End Instance
**  
*Instance, name=Robot_SOLID-1, part=Robot_SOLID
*End Instance
**  
*Elset, elset=PIPE_SOLID_CEL_ALL, instance=Pipe_SOLID-1, generate
1, 5203, 1
*Elset, elset=ROBOT_SOLID_CEL_ALL, instance=Robot_SOLID-1, generate
1, 78024, 1
**  
*Node
      1,  -5.80302477,  -9.99273777,  -5.95533371
*Node
      2, -7.468174204284, -3.676918015967, -9.550745259298
*Nset, nset=RP_PIPE
 1,
*Nset, nset=RP_ROBOT
 2,
*Elset, elset=PIPE_RIGID_ALL
PIPE_SOLID_CEL_ALL,
PIPE_WALL_HELPER_CEL_ALL,
PIPE_TERMINAL_STOP_CEL_ALL,
PIPE_TERMINAL_STOP_HIGH_CEL_ALL,
*Rigid Body, ref node=RP_PIPE, elset=PIPE_RIGID_ALL
** Constraint: RB_PIPE
** Constraint: RB_ROBOT
*Rigid Body, ref node=RP_ROBOT, elset=ROBOT_SOLID_CEL_ALL
*End Assembly
** Reduced-Hydro: CEL fluid part, material, initialization and CEL contact were removed.
** 
** MATERIALS
** 
*Material, name=MAT_PIPE_RIGID
*Density
 1e-09,
*Elastic
 1e+06, 0.3
*Material, name=MAT_ROBOT_RIGID
*Density
7.80906654321e-09, 
*Elastic
 1e+06, 0.3
** 
** INTERACTION PROPERTIES
** 
*Surface Interaction, name=PROP_CEL_HARD
*Friction
0.03,
*Surface Behavior, pressure-overclosure=HARD
*Contact Damping, definition=CRITICAL DAMPING FRACTION, tangent fraction=0.0
0.50
** 
** BOUNDARY CONDITIONS
** 
** Name: BC_PIPE_FIXED Type: Symmetry/Antisymmetry/Encastre
*Boundary
RP_PIPE, ENCASTRE
** ----------------------------------------------------------------
** 
** STEP: Step_Drive
** 
*Contact
*Contact Inclusions
ROBOT_SOLID-1.ROBOT_SOLID_SURF, Pipe_WALL_HELPER-1.PIPE_WALL_HELPER_SURF
*Contact Property Assignment
ROBOT_SOLID-1.ROBOT_SOLID_SURF, Pipe_WALL_HELPER-1.PIPE_WALL_HELPER_SURF, PROP_CEL_HARD
** REDUCED-HYDRO BASELINE; CEL REMOVED; production external Magpylib retained.
** FREE-TRANSLATION PARAMETERS: phase=248.0 deg; cone=30 deg; Bias40; gradient=6.000 mT=0.006000 T; server-side analytic field
** SOCKET BASELINE JOB: Job_RouteA_CEL_Socket_ConnectorFixed_Capsule_0p003
** Local centerline frame at COM RP (metadata only); COM translations constrained in calibration
** COM-fixed RP_ROBOT = (-7.468174204284, -3.676918015967, -9.550745259298) mm; volume-weighted mesh COM
** tangent-X = (-0.928048296, 0.179421111, -0.326396119)
** transported-Y = (0.140416425, 0.988230515, -0.0606933022)
** binormal-Z = (0.312362773, -0.102386426, -0.944429202)
** CSF rho=1.0007e-09 tonne/mm^3; mu=7.1e-10 N*s/mm^2; c0=1480000 mm/s
*Step, name=Step_Drive, nlgeom=YES
*Dynamic, Explicit, DIRECT
1.0e-7, 0.008333
*Bulk Viscosity
0.06, 1.2
** 
** BOUNDARY CONDITIONS
** 
** REDUCED-HYDRO LOAD INTERFACE: magnetic Socket loads plus dissipative body-following hydro loads.
** SOCKET_* remain production Magpylib loads; HYDRO_* are local dissipative loads from RP V/VR sensors.
** DOF 1..3: Fx,Fy,Fz [N]; DOF 4..6: Mx,My,Mz [N*mm].
** Abaqus uses *CLOAD for both concentrated forces and moments;
** CFORCE/CMOMENT are output quantities, not input keywords.
*Amplitude, name=SOCKET_FX, definition=USER
*Amplitude, name=SOCKET_FY, definition=USER
*Amplitude, name=SOCKET_FZ, definition=USER
*Amplitude, name=SOCKET_MX, definition=USER
*Amplitude, name=SOCKET_MY, definition=USER
*Amplitude, name=SOCKET_MZ, definition=USER
*Cload, amplitude=SOCKET_FX
RP_ROBOT, 1, 1.
*Cload, amplitude=SOCKET_FY
RP_ROBOT, 2, 1.
*Cload, amplitude=SOCKET_FZ
RP_ROBOT, 3, 1.
*Cload, amplitude=SOCKET_MX
RP_ROBOT, 4, 1.
*Cload, amplitude=SOCKET_MY
RP_ROBOT, 5, 1.
*Cload, amplitude=SOCKET_MZ
RP_ROBOT, 6, 1.
*Amplitude, name=HYDRO_FX, definition=USER
*Amplitude, name=HYDRO_FY, definition=USER
*Amplitude, name=HYDRO_FZ, definition=USER
*Amplitude, name=HYDRO_MX, definition=USER
*Amplitude, name=HYDRO_MY, definition=USER
*Amplitude, name=HYDRO_MZ, definition=USER
*Cload, amplitude=HYDRO_FX
RP_ROBOT, 1, 1.
*Cload, amplitude=HYDRO_FY
RP_ROBOT, 2, 1.
*Cload, amplitude=HYDRO_FZ
RP_ROBOT, 3, 1.
*Cload, amplitude=HYDRO_MX
RP_ROBOT, 4, 1.
*Cload, amplitude=HYDRO_MY
RP_ROBOT, 5, 1.
*Cload, amplitude=HYDRO_MZ
RP_ROBOT, 6, 1.
** 
** OUTPUT REQUESTS
** 
*Restart, write, number interval=1, time marks=NO
** 
** FIELD OUTPUT: F-Output-1
** 
** IMPACT ENERGY DIAGNOSTIC: preserve all existing physics; save visualization/contact fields every 25 us; RP and contact-resultant history remains every increment.
*Output, field, time interval=2.5e-5, time marks=NO
*Node Output
U
*Node Output, nset=RP_ROBOT
U, UR, V, VR, A, AR, CF, RF, RM
*Contact Output, general contact
CSTRESS, CFORCE
*Contact Output, surface=ROBOT_SOLID-1.ROBOT_SOLID_SURF
CDISP
*Output, history, frequency=1
*Node Output, nset=RP_ROBOT
COORD, U, UR, V, VR, A, AR, CF, RF, RM
*Contact Output, surface=ROBOT_SOLID-1.ROBOT_SOLID_SURF
CFN, CFS, CFT
*Contact Output, surface=Pipe_WALL_HELPER-1.PIPE_WALL_HELPER_SURF
CFN, CFS, CFT
*Output, history, time interval=5.0e-5
*Energy Output, variable=ALL
*Output, history, frequency=1, sensor, name=RP_U1
*Node Output, nset=RP_ROBOT
U1
*Output, history, frequency=1, sensor, name=RP_U2
*Node Output, nset=RP_ROBOT
U2
*Output, history, frequency=1, sensor, name=RP_U3
*Node Output, nset=RP_ROBOT
U3
*Output, history, frequency=1, sensor, name=RP_UR1
*Node Output, nset=RP_ROBOT
UR1
*Output, history, frequency=1, sensor, name=RP_UR2
*Node Output, nset=RP_ROBOT
UR2
*Output, history, frequency=1, sensor, name=RP_UR3
*Node Output, nset=RP_ROBOT
UR3
*Output, history, frequency=1, sensor, name=RP_V1
*Node Output, nset=RP_ROBOT
V1
*Output, history, frequency=1, sensor, name=RP_V2
*Node Output, nset=RP_ROBOT
V2
*Output, history, frequency=1, sensor, name=RP_V3
*Node Output, nset=RP_ROBOT
V3
*Output, history, frequency=1, sensor, name=RP_VR1
*Node Output, nset=RP_ROBOT
VR1
*Output, history, frequency=1, sensor, name=RP_VR2
*Node Output, nset=RP_ROBOT
VR2
*Output, history, frequency=1, sensor, name=RP_VR3
*Node Output, nset=RP_ROBOT
VR3
*End Step
