** R014 exterior mesh analytic-field probe; 10 mg; D055; gradient 3 mT; Bias40; forward
** RESTORED ROBOT: _robot_true_R014_source.inp mesh; exact 6 mg; 2.01 mm wall helper offset=0.005 mm
** HIGH-WOBBLE 6 ms PROBE: only damping 0.055 -> 0.020; all other physics unchanged
** BOUNDED MEDIUM PROBE: 6 ms; no geometry/physics change; output 2 us
** COPEN PRECHECK: physics unchanged; robot exterior-only surface output added
** ROBOT CONTACT SANITIZED: TRUE EXTERIOR FACES ONLY
** ROBOT PART TRANSPLANTED FROM UNROUNDED BASE; no stacked fillet
** donor=_robot_true_R014_source.inp
** High-end robot-only stop added; CEL remains open; band=0.8 mm, faces=23
** CAPSULE/FILLET VARIANT; rf=0.1 mm; source=CEL_CurrentCenterline_Cone15_Z110_PolarityPlus_Mu003_Damp055_AfterBendReverse_015.inp
** MATRIX VARIANT: mu003
** Z=110 mm single-variable probe; 5 Hz fixed; m_robot=1.168e-3 A*m^2; adaptive-lead=0.
** POLARITY-PLUS CLOSED-LOOP 0.03 s: +robot_axis_global end assumed N; adaptive-lead=0.
** FULL 3D LIVE-MAGNETIC FORCE/TORQUE CLOSED-LOOP: the force is projected onto the local DXF tangent; torque remains live from Magpylib; endpoint caps are retained in the wall helper; duration=0.03 s
** FULL 3D LIVE-MAGNETIC FORCE/TORQUE CLOSED-LOOP: the force is projected onto the local DXF tangent; torque remains live from Magpylib; endpoint caps are retained in the wall helper; duration=0.006 s
** FULL 3D LIVE-MAGNETIC FORCE/TORQUE CLOSED-LOOP: the force is projected onto the local DXF tangent; torque remains live from Magpylib; endpoint caps are retained in the wall helper; duration=0.03 s
** Terminal robot-only outlet stop added at low-s end; CEL remains open; cap_band=0.8 mm, faces=75
** FULL 3D LIVE-MAGNETIC FORCE/TORQUE CLOSED-LOOP: the force is projected onto the local DXF tangent; torque remains live from Magpylib; endpoint caps are retained in the wall helper; duration=0.03 s
** FORWARD-ONLY DIAGNOSTIC: live Magpylib force projected onto the local DXF pipe tangent; magnetic torque is disabled; 0.010 s probe
** WALL/CEL FACTORIAL DIAGNOSTIC; only contact inclusions changed
** CEL boundary-wall probe: Pipe_SOLID retained as fixed mass but excluded from contact; helper R3D4 wall offset=0.2 mm, end caps removed=98
*Heading
** WALL/CEL FACTORIAL: WobbleCal_COMFixed_F30_Cone30_B10; Wall=OFF; CEL=ON; 1.8 ms; phase=248 deg; gradient=3.000 mT=0.003000 T; spin=30 Hz
** COM-FIXED CALIBRATION: F40; cone30; B=10 mT; Wall-OFF; CEL-ON; translations fixed, rotations free
** Robot refined contact mesh, centerline translation + tangent-following orientation
** Job name: Job_RouteA_CEL_SOLID_robotfine Model name: RouteA_SolidCEL_Probe
** Generated by: Abaqus/CAE 2025
*Preprint, echo=NO, model=NO, history=NO, contact=NO
**
** PARTS
**
*Part, name=FLUID_EULERIAN
*Node
      1,  -16.7237701,  -16.9749355,  -1.60377359
      2,   -17.105442,  -16.6798229,  -1.42346621
      3,  -17.5757713,  -16.4768677,  -1.47709882
      4,  -18.0087299,  -16.4204502,  -1.75030053
      5,   -18.288311,  -16.5256882,  -2.16986728
      6,  -16.5330219,  -17.2831306,  -1.96970761
      7,  -18.3395977,  -16.7643833,  -2.62337637
      8,  -18.1488495,  -17.0725784,   -2.9893105
      9,  -17.7671776,   -17.367691,  -3.16961789
     10,  -17.2968483,  -17.5706463,  -3.11598539
     11,  -16.8638878,  -17.6270638,  -2.84278345
     12,  -16.5843086,  -17.5218258,  -2.42321682
     13,  -17.0575333,  -16.9468861,  -1.84088337
     14,  -17.3320179,  -17.1738396,  -2.46499729
     15,  -17.2073231,  -16.7667675,  -1.65976119
     16,  -17.4819317,  -16.6840191,  -1.75243568
     17,  -17.9236317,  -16.7408257,   -2.2274344
     18,  -17.6498013,  -17.0410252,  -2.50863981
     19,  -17.3224373,  -17.0277367,  -2.20605063
     20,  -16.9682102,  -17.1470375,  -2.10806751
** ... 2050 like lines cut
*Element, type=EC3D8R
   1,   36,   31,   43,   50,    6,    1,   13,   20
   2,   50,   43,   57,   49,   20,   13,   27,   19
   3,   31,   32,   45,   43,    1,    2,   15,   13
   4,   33,   46,   45,   32,    3,   16,   15,    2
   5,   47,   59,   60,   53,   17,   29,   30,   23
   6,   49,   59,   48,   44,   19,   29,   18,   14
   7,   49,   44,   51,   50,   19,   14,   21,   20
   8,   54,   48,   59,   47,   24,   18,   29,   17
   9,   60,   57,   46,   53,   30,   27,   16,   23
  10,   44,   56,   52,   51,   14,   26,   22,   21
  11,   41,   42,   51,   52,   11,   12,   21,   22
  12,   33,   34,   53,   46,    3,    4,   23,   16
  13,   53,   34,   35,   47,   23,    4,    5,   17
  14,   35,   37,   54,   47,    5,    7,   24,   17
  15,   54,   37,   38,   55,   24,    7,    8,   25
  16,   55,   38,   39,   58,   25,    8,    9,   28
  17,   59,   49,   57,   60,   29,   19,   27,   30
  18,   42,   36,   50,   51,   12,    6,   20,   21
  19,   52,   56,   40,   41,   22,   26,   10,   11
  20,   54,   55,   58,   48,   24,   25,   28,   18
** ... 1544 like lines cut
*Elset, elset=FLUID_CEL_BODY, generate
    1,  1564,     1
*Eulerian Section, elset=FLUID_CEL_BODY
MAT_FLUID_CEL, WATER
*End Part
**  
** Boundary-only rigid wall helper generated from FLUID_EULERIAN boundary
** Boundary-only rigid wall helper generated from FLUID_EULERIAN boundary
*Part, name=Pipe_WALL_HELPER
*Node
       1, -16.5312897005, -17.2868904576, -1.9669035138
       2, -16.970186333, -17.1510059578, -2.10575531598
       3, -17.0595094318, -16.9508545594, -1.83857117776
       4, -16.7227038313, -16.9776193944, -1.5996919504
       5, -16.3317931628, -16.889444982, -2.19820316494
       6, -16.5234998969, -16.5797011677, -1.83043029113
       7, -17.3244134201, -17.031705164, -2.20373843566
       8, -17.3635636271, -16.8736908617, -1.96599708767
       9, -17.2092992278, -16.7707359574, -1.65744899091
      10, -17.1057082159, -16.6814764918, -1.41875507815
      11, -16.9070916517, -16.2831055879, -1.64921683443
      12, -17.5776795246, -16.4778127316, -1.47257492853
      13, -17.4839078321, -16.6879875554, -1.7501234811
      14, -17.379782511, -16.0791305094, -1.70311896567
      15, -17.9256078331, -16.7447941558, -2.22512220262
      16, -17.7599030349, -16.6624138527, -1.94211206892
      17, -17.585744927, -16.8181869606, -2.06062148565
      18, -17.6289197219, -16.9097091641, -2.2546040873
      19, -17.3339940228, -17.1778080593, -2.46268508992
      20, -17.6517774276, -17.044993662, -2.50632761859
** ... 776 like lines cut
*Element, type=R3D4
       1, 1, 2, 3, 4
       2, 5, 1, 4, 6
       3, 2, 7, 8, 3
       4, 4, 3, 9, 10
       5, 6, 4, 10, 11
       6, 12, 10, 9, 13
       7, 11, 10, 12, 14
       8, 15, 16, 17, 18
       9, 7, 19, 20, 18
      10, 7, 2, 21, 19
      11, 22, 15, 18, 20
      12, 17, 16, 13, 8
      13, 19, 21, 23, 24
      14, 25, 23, 21, 26
      15, 27, 25, 26, 28
      16, 12, 13, 16, 29
      17, 14, 12, 29, 30
      18, 16, 15, 31, 29
      19, 31, 15, 22, 32
      20, 22, 33, 34, 32
** ... 744 like lines cut
*Elset, elset=PIPE_WALL_HELPER_ALL, generate
1, 764, 1
*Surface, type=ELEMENT, name=PIPE_WALL_HELPER_SURF
PIPE_WALL_HELPER_ALL, SPOS
*End Part
** Robot-only terminal stop; not included in CEL material contact
*Part, name=Pipe_TERMINAL_STOP
*Node
       1, -17.8120422, -16.0254612, -1.98043847
       2, -18.0087299, -16.4204502, -1.75030053
       3, -18.288311, -16.5256882, -2.16986728
       4, -18.0916214, -16.1306992, -2.40000534
       5, -18.3395977, -16.7643833, -2.62337637
       6, -18.1429081, -16.3693943, -2.85351443
       7, -18.1488495, -17.0725784, -2.9893105
       8, -17.9521599, -16.6775894, -3.21944857
       9, -17.7671776, -17.367691, -3.16961789
      10, -17.570488, -16.972702, -3.39975595
      11, -17.6153526, -15.6304722, -2.21057653
      12, -17.8949337, -15.7357101, -2.63014317
      13, -17.9462204, -15.9744062, -3.08365226
      14, -17.7554722, -16.2826004, -3.44958639
      15, -17.3737984, -16.577713, -3.62989378
      16, -17.4186649, -15.2354832, -2.44071436
      17, -17.6982441, -15.3407211, -2.86028123
      18, -17.7495308, -15.5794172, -3.31379032
      19, -17.5587826, -15.8876114, -3.67972445
      20, -17.1771107, -16.182724, -3.86003184
** ... 82 like lines cut
*Element, type=R3D4
       1, 1, 2, 3, 4
       2, 4, 3, 5, 6
       3, 6, 5, 7, 8
       4, 8, 7, 9, 10
       5, 11, 1, 4, 12
       6, 12, 4, 6, 13
       7, 13, 6, 8, 14
       8, 14, 8, 10, 15
       9, 16, 11, 12, 17
      10, 17, 12, 13, 18
      11, 18, 13, 14, 19
      12, 19, 14, 15, 20
      13, 21, 16, 17, 22
      14, 22, 17, 18, 23
      15, 23, 18, 19, 24
      16, 24, 19, 20, 25
      17, 26, 21, 22, 27
      18, 27, 22, 23, 28
      19, 28, 23, 24, 29
      20, 29, 24, 25, 30
** ... 55 like lines cut
*Elset, elset=PIPE_TERMINAL_STOP_ALL, generate
1, 75, 1
*Surface, type=ELEMENT, name=PIPE_TERMINAL_STOP_SURF
PIPE_TERMINAL_STOP_ALL, SPOS
*End Part
** Robot-only HIGH terminal stop; CEL material remains open
*Part, name=Pipe_TERMINAL_STOP_HIGH
*Node
       1, 6.27608633, -5.94825697, -5.65262365
       2, 6.23722649, -5.56458235, -5.31121445
       3, 6.34579229, -5.31667519, -5.61977959
       4, 6.38327122, -5.54258728, -5.87859058
       5, 6.42685938, -5.04812479, -5.80939579
       6, 6.46756983, -5.20532656, -6.0474062
       7, 6.27052021, -5.06325388, -5.19791079
       8, 6.33665085, -5.0666728, -5.4613657
       9, 6.36704683, -4.57860231, -5.34307146
      10, 6.40535831, -4.81330633, -5.60947752
      11, 6.58144331, -4.56312513, -6.18421125
      12, 6.53330231, -4.8993721, -6.15803194
      13, 6.48639822, -4.85262394, -5.94950342
      14, 6.49429512, -4.60639381, -5.86038208
      15, 6.58811331, -4.99606991, -6.42228222
      16, 6.52141619, -5.31991053, -6.3165822
      17, 6.44574213, -5.67432833, -6.19029665
      18, 6.65065527, -4.65971994, -6.50541687
      19, 6.5850873, -5.45662498, -6.63546896
      20, 6.51303816, -5.71766949, -6.47788239
** ... 10 like lines cut
*Element, type=R3D4
       1, 1, 2, 3, 4
       2, 4, 3, 5, 6
       3, 2, 7, 8, 3
       4, 9, 10, 8, 7
       5, 11, 12, 13, 14
       6, 6, 12, 15, 16
       7, 6, 16, 17, 4
       8, 18, 15, 12, 11
       9, 13, 5, 10, 14
      10, 16, 19, 20, 17
      11, 21, 22, 17, 20
      12, 9, 23, 14, 10
      13, 14, 23, 24, 11
      14, 24, 25, 18, 11
      15, 18, 25, 26, 27
      16, 27, 26, 28, 29
      17, 12, 6, 5, 13
      18, 22, 1, 4, 17
      19, 20, 19, 30, 21
      20, 18, 27, 29, 15
      21, 29, 28, 30, 19
      22, 29, 19, 16, 15
      23, 5, 3, 8, 10
*Elset, elset=PIPE_TERMINAL_STOP_HIGH_ALL, generate
1, 23, 1
*Surface, type=ELEMENT, name=PIPE_TERMINAL_STOP_HIGH_SURF
PIPE_TERMINAL_STOP_HIGH_ALL, SPOS
*End Part
*Part, name=Pipe_SOLID
*Node
      1,  -16.5284824,  -17.2844334,  -1.96806526
      2,  -18.3441372,  -16.7630806,  -2.62501884
      3,  -13.0335417,  -6.09837723,  -8.83874321
      4,  -11.2178869,  -6.61973047,   -8.1817894
      5,  -6.19710016,  -2.70104122,  -9.94260216
      6,   6.73808718,  -4.29859257,  -6.67496824
      7,   6.27492857,  -5.95239115,  -5.65006161
      8,  -6.66025925,   -4.3548398,    -8.917696
      9,  -16.7201881,  -16.9746914,  -1.60029233
     10,  -17.1037788,  -16.6780949,  -1.41907883
     11,  -17.5764713,  -16.4741192,  -1.47298098
     12,  -18.0116062,  -16.4174194,  -1.74755561
     13,   -18.292593,  -16.5231857,   -2.1692307
     14,  -18.1524296,  -17.0728245,  -2.99279189
     15,  -17.7688389,  -17.3694191,  -3.17400527
     16,  -17.2961483,  -17.5733948,  -3.12010312
     17,  -16.8610115,  -17.6300964,  -2.84552836
     18,  -16.5800266,  -17.5243282,   -2.4238534
     19,  -18.1474476,  -16.3680916,  -2.85515666
     20,  -17.9507599,  -15.9731026,  -3.08529472
** ... 1325 like lines cut
*Element, type=C3D4
   1,  843,  844,  845,  846
   2,  847,  671,  848,  676
   3,  846,  849,  845,  850
   4,  846,  851,  849,  850
   5,  849,  852,  851,  846
   6,  853,  849,  852,  851
   7,  846,  854,  855,  851
   8,  846,  852,  851,  855
   9,  856,  498,  857,  858
  10,  859,  860,  861,  862
  11,  859,  863,  860,  862
  12,  859,  864,  865,  866
  13,  867,  499,  494,  495
  14,  868,  869,  870,  859
  15,  871,  872,  873,   21
  16,  859,  869,  863,  874
  17,  859,  875,  862,  866
  18,  859,  876,  875,  868
  19,  877,  586,  843,  587
  20,  876,  869,  868,  859
** ... 5183 like lines cut
*Nset, nset=PIPE_CEL_BODY, generate
    1,  1345,     1
*Elset, elset=PIPE_CEL_BODY, generate
    1,  5203,     1
*Elset, elset=PIPE_SOLID_ALL, generate
1, 5203, 1
*Surface, type=ELEMENT, name=PIPE_SOLID_SURF
PIPE_SOLID_ALL, S1
PIPE_SOLID_ALL, S2
PIPE_SOLID_ALL, S3
PIPE_SOLID_ALL, S4
** Section: SEC_PIPE_RIGID
*Solid Section, elset=PIPE_CEL_BODY, material=MAT_PIPE_RIGID
,
*End Part
**  
** ROBOT TRANSVERSE SHRINK: PCA minor axes scaled to 0.90; long axis unchanged
*Part, name=Robot_SOLID
*Node
1, 3.43472225275, -4.86226208389, -6.86025986431
2, 3.95675337699, -4.88513515563, -7.20912625246
3, 3.76246273074, -4.87331943111, -6.43736251544
4, 6.34266350067, -5.15728505012, -6.52480888697
5, 6.17046934444, -5.16416350179, -5.89737128719
6, 3.56618829152, -4.85820625182, -7.02477517213
7, 3.74664822189, -4.86045322335, -7.17702249192
8, 3.92660090733, -5.05597548022, -7.17345635768
9, 3.88317999837, -5.19180905798, -7.06842273681
10, 3.8350901539, -5.26573178382, -6.9148283309
11, 3.79185641314, -5.2631024152, -6.74309468168
12, 3.76204186105, -5.18444206975, -6.5872354885
13, 3.75155131231, -5.04533042341, -6.47812088153
14, 3.59273783192, -4.86642110837, -6.56727895754
15, 3.47903226342, -4.86431718758, -6.7101091085
16, 3.7926152004, -4.70247910652, -6.47303241021
17, 3.83603611929, -4.56664552888, -6.57806603086
18, 3.88412596376, -4.49272280304, -6.73166043677
19, 3.92735969459, -4.49535217154, -6.90339408621
20, 3.95717424668, -4.57401251699, -7.05925327939
** ... 343 like lines cut
*Element, type=C3D4
   1, 218, 160, 219, 161
   2, 220, 221, 222, 218
   3, 218, 220, 223, 219
   4, 218, 222, 219, 224
   5, 225, 226, 227, 228
   6, 228,  72,   6, 225
   7, 225,   6, 227,   1
   8, 122, 229, 230, 231
   9, 231, 134, 232, 133
  10, 233, 234, 235, 236
  11, 231, 237, 238, 239
  12, 231, 237, 133, 232
  13, 240, 241, 242, 243
  14, 240, 118, 241, 129
  15, 240, 118, 244, 241
  16, 240, 245, 244, 117
  17, 246, 240, 221, 244
  18, 240, 241, 246, 242
  19, 240, 247, 221, 244
  20, 244, 245, 248, 249
** ... 1411 like lines cut
** TRUE EXTERIOR C3D4 FACE SETS; internal tetra faces excluded
*Elset, elset=ROBOT_EXTERIOR_S1
62, 72, 477, 855, 870, 970, 997, 1040, 1043, 1052, 1087, 1106, 1113, 1134, 1175, 1245
1266, 1355, 1427
*Elset, elset=ROBOT_EXTERIOR_S2
35, 466, 488, 829, 834, 851, 927, 1007, 1029, 1045, 1079, 1091, 1103, 1185, 1240, 1276
1353, 1381
*Elset, elset=ROBOT_EXTERIOR_S3
48, 63, 75, 76, 93, 105, 115, 151, 166, 169, 171, 237, 263, 271, 304, 306
323, 326, 329, 330, 340, 374, 389, 390, 404, 429, 464, 465, 478, 484, 490, 526
557, 559, 571, 583, 587, 591, 624, 626, 632, 647, 666, 674, 692, 699, 711, 717
727, 730, 742, 747, 750, 751, 770, 771, 773, 783, 785, 803, 804, 818, 825, 826
828, 830, 833, 836, 841, 845, 846, 852, 854, 858, 860, 861, 863, 864, 865, 866
869, 871, 872, 876, 878, 880, 881, 883, 886, 888, 890, 891, 892, 893, 894, 896
897, 898, 900, 904, 905, 907, 908, 909, 910, 913, 915, 916, 917, 919, 920, 921
923, 924, 925, 926, 929, 931, 932, 933, 934, 937, 938, 939, 940, 941, 942, 943
944, 945, 946, 949, 950, 951, 952, 957, 959, 961, 964, 967, 971, 972, 973, 974
975, 976, 977, 978, 979, 982, 986, 987, 988, 991, 996, 999, 1004, 1005, 1008, 1011
1012, 1013, 1016, 1017, 1018, 1021, 1023, 1025, 1028, 1030, 1033, 1035, 1036, 1042, 1043, 1047
1048, 1052, 1053, 1054, 1055, 1056, 1063, 1064, 1065, 1069, 1072, 1073, 1074, 1078, 1079, 1081
1082, 1084, 1085, 1086, 1088, 1089, 1092, 1093, 1094, 1095, 1096, 1097, 1102, 1103, 1106, 1108
1109, 1112, 1114, 1115, 1116, 1117, 1119, 1120, 1121, 1123, 1126, 1130, 1131, 1132, 1135, 1136
1137, 1138, 1141, 1145, 1149, 1150, 1151, 1156, 1157, 1159, 1162, 1164, 1165, 1166, 1167, 1168
1171, 1172, 1173, 1178, 1182, 1183, 1184, 1186, 1187, 1188, 1189, 1190, 1192, 1195, 1196, 1197
1199, 1200, 1202, 1203, 1204, 1205, 1209, 1210, 1211, 1212, 1213, 1214, 1217, 1221, 1222, 1224
1225, 1226, 1228, 1229, 1230, 1231, 1232, 1233, 1234, 1235, 1237, 1238, 1239, 1241, 1243, 1246
1249, 1252, 1253, 1254, 1255, 1256, 1259, 1260, 1261, 1265, 1269, 1271, 1273, 1274, 1275, 1278
1279, 1283, 1286, 1288, 1289, 1290, 1293, 1294, 1296, 1297, 1298, 1300, 1303, 1305, 1306, 1311
** ... 4 like lines cut
*Elset, elset=ROBOT_EXTERIOR_S4
159, 207, 233, 257, 565, 597, 693, 732, 782, 848, 1015, 1031, 1060, 1089, 1099, 1110
1154, 1206, 1216, 1328, 1373, 1420
*Nset, nset=ROBOT_CEL_BODY, generate
   1,  363,    1
*Elset, elset=ROBOT_CEL_BODY, generate
    1,  1431,     1
*Elset, elset=ROBOT_SOLID_ALL, generate
1, 1431, 1
*Surface, type=ELEMENT, name=ROBOT_SOLID_SURF
ROBOT_EXTERIOR_S1, S1
ROBOT_EXTERIOR_S2, S2
ROBOT_EXTERIOR_S3, S3
ROBOT_EXTERIOR_S4, S4
** Section: SEC_ROBOT_RIGID
*Solid Section, elset=ROBOT_CEL_BODY, material=MAT_ROBOT_RIGID
,
*End Part
**  
**
** ASSEMBLY
**
*Assembly, name=Assembly
*Instance, name=Pipe_WALL_HELPER-1, part=Pipe_WALL_HELPER
*End Instance
**  
*Instance, name=Pipe_TERMINAL_STOP-1, part=Pipe_TERMINAL_STOP
*End Instance
**  
*Instance, name=Pipe_TERMINAL_STOP_HIGH-1, part=Pipe_TERMINAL_STOP_HIGH
*End Instance
**  
*Elset, elset=PIPE_TERMINAL_STOP_CEL_ALL, instance=Pipe_TERMINAL_STOP-1, generate
1, 75, 1
*Elset, elset=PIPE_TERMINAL_STOP_HIGH_CEL_ALL, instance=Pipe_TERMINAL_STOP_HIGH-1, generate
1, 23, 1
*Elset, elset=PIPE_WALL_HELPER_CEL_ALL, instance=Pipe_WALL_HELPER-1, generate
1, 764, 1
**  
*Instance, name=Pipe_SOLID-1, part=Pipe_SOLID
*End Instance
**  
*Instance, name=Robot_SOLID-1, part=Robot_SOLID
-12.4046543000, 1.3357653000, -2.9992361000
*End Instance
**  
*Instance, name=Fluid_EULERIAN-1, part=FLUID_EULERIAN
*End Instance
*Elset, elset=FLUID_CEL_ALL, instance=Fluid_EULERIAN-1, generate
1, 1564, 1
*Elset, elset=FLUID_CEL_INIT_ALL, instance=Fluid_EULERIAN-1
1, 3, 4, 6, 8, 9, 10, 11, 12, 13, 14, 16, 17, 18, 19, 20
21, 22, 23, 25, 27, 28, 29, 30, 31, 36, 39, 44, 47, 52, 55, 60
63, 68, 71, 76, 79, 84, 87, 92, 95, 100, 103, 108, 111, 116, 119, 124
127, 132, 135, 140, 143, 148, 149, 152, 157, 158, 159, 162, 167, 168, 169, 172
177, 178, 179, 182, 187, 188, 189, 192, 197, 198, 199, 202, 208, 209, 212, 217
218, 219, 220, 221, 224, 229, 230, 231, 232, 233, 236, 241, 242, 243, 244, 245
248, 253, 254, 255, 256, 257, 260, 265, 266, 267, 268, 269, 272, 277, 278, 279
280, 281, 284, 289, 290, 291, 292, 293, 296, 301, 302, 303, 304, 305, 308, 313
314, 315, 316, 317, 320, 325, 326, 327, 328, 329, 332, 337, 338, 339, 341, 344
349, 350, 351, 352, 353, 356, 361, 362, 363, 364, 365, 368, 373, 374, 375, 376
377, 380, 385, 386, 387, 388, 389, 392, 397, 398, 399, 400, 401, 404, 409, 410
411, 412, 413, 416, 421, 422, 423, 424, 425, 428, 433, 434, 435, 436, 437, 440
445, 446, 447, 448, 449, 452, 457, 458, 459, 460, 461, 464, 469, 470, 471, 472
473, 476, 481, 482, 483, 484, 485, 488, 493, 494, 495, 496, 497, 500, 505, 506
507, 508, 509, 512, 517, 518, 519, 520, 521, 524, 529, 530, 531, 532, 533, 536
541, 542, 543, 544, 545, 548, 553, 554, 555, 556, 557, 560, 565, 566, 567, 568
569, 572, 577, 578, 579, 580, 581, 584, 589, 590, 591, 592, 593, 596, 601, 602
603, 604, 605, 608, 613, 614, 615, 616, 617, 620, 625, 626, 627, 628, 629, 632
637, 638, 639, 640, 641, 644, 649, 650, 651, 652, 653, 656, 661, 662, 663, 664
665, 668, 673, 674, 675, 676, 677, 680, 681, 684, 685, 686, 687, 688, 689, 690
** ... 48 like lines cut
*Elset, elset=PIPE_SOLID_CEL_ALL, instance=Pipe_SOLID-1, generate
1, 5203, 1
*Elset, elset=ROBOT_SOLID_CEL_ALL, instance=Robot_SOLID-1, generate
1, 1431, 1
**  
*Node
      1,  -5.80302477,  -9.99273777,  -5.95533371
*Node
      2, -7.468174204284, -3.676918015967, -9.550745259298
*Nset, nset=RP_PIPE
 1,
*Nset, nset=RP_ROBOT
 2,
*Elset, elset=PIPE_RIGID_ALL
PIPE_SOLID_CEL_ALL,
PIPE_WALL_HELPER_CEL_ALL,
PIPE_TERMINAL_STOP_CEL_ALL,
PIPE_TERMINAL_STOP_HIGH_CEL_ALL,
*Rigid Body, ref node=RP_PIPE, elset=PIPE_RIGID_ALL
** Constraint: RB_PIPE
** Constraint: RB_ROBOT
*Rigid Body, ref node=RP_ROBOT, elset=ROBOT_SOLID_CEL_ALL
*Surface, type=EULERIAN MATERIAL, name=FLUID_CEL_SURF
Fluid_EULERIAN-1_WATER
*End Assembly
** CEL fill uses 1564 verified Eulerian elements; unassigned volume is VOID.
*Initial Conditions, type=VOLUME FRACTION
FLUID_CEL_INIT_ALL, Fluid_EULERIAN-1_WATER, 1.0
** 
** MATERIALS
** 
*Material, name=MAT_FLUID_CEL
*Density
 1.0007e-09,
*Eos, type=USUP
 1480000, 0., 0.
*Viscosity
 7.1e-10,
*Material, name=MAT_PIPE_RIGID
*Density
 1e-09,
*Elastic
 1e+06, 0.3
*Material, name=MAT_ROBOT_RIGID
*Density
7.80906654321e-09, 
*Elastic
 1e+06, 0.3
** 
** INTERACTION PROPERTIES
** 
*Surface Interaction, name=PROP_CEL_HARD
*Friction
0.03,
*Surface Behavior, pressure-overclosure=HARD
*Contact Damping, definition=CRITICAL DAMPING FRACTION
0.055
** 
** BOUNDARY CONDITIONS
** 
** Name: BC_PIPE_FIXED Type: Symmetry/Antisymmetry/Encastre
*Boundary
RP_PIPE, ENCASTRE
RP_ROBOT, 1, 3
** ----------------------------------------------------------------
** 
** STEP: Step_Drive
** 
*Contact
*Contact Inclusions
ROBOT_SOLID-1.ROBOT_SOLID_SURF, FLUID_CEL_SURF
Pipe_WALL_HELPER-1.PIPE_WALL_HELPER_SURF, FLUID_CEL_SURF
*Contact Property Assignment
ROBOT_SOLID-1.ROBOT_SOLID_SURF, FLUID_CEL_SURF, PROP_CEL_HARD
Pipe_WALL_HELPER-1.PIPE_WALL_HELPER_SURF, FLUID_CEL_SURF, PROP_CEL_HARD
** COM-FIXED CALIBRATION PARAMETERS: phase=248.0 deg; cone=30 deg; Bias40; gradient=3.000 mT=0.003000 T; server-side analytic field
** SOCKET BASELINE JOB: Job_RouteA_CEL_Socket_ConnectorFixed_Capsule_0p003
** Local centerline frame at COM RP (metadata only); COM translations constrained in calibration
** COM-fixed RP_ROBOT = (-7.468174204284, -3.676918015967, -9.550745259298) mm; volume-weighted mesh COM
** tangent-X = (-0.928048296, 0.179421111, -0.326396119)
** transported-Y = (0.140416425, 0.988230515, -0.0606933022)
** binormal-Z = (0.312362773, -0.102386426, -0.944429202)
** CSF rho=1.0007e-09 tonne/mm^3; mu=7.1e-10 N*s/mm^2; c0=1480000 mm/s
*Step, name=Step_Drive, nlgeom=YES
*Dynamic, Explicit
, 0.100
*Bulk Viscosity
0.06, 1.2
** 
** BOUNDARY CONDITIONS
** 
** SOCKET MAGNETIC LOAD INTERFACE -- RP_ROBOT translations fixed at volume COM; UR1-UR3 free.
** Six VUAMP amplitudes remain updated every Explicit increment by vuforc_socket_bridge.f.
** DOF 1..3: Fx,Fy,Fz [N]; DOF 4..6: Mx,My,Mz [N*mm].
** Abaqus uses *CLOAD for both concentrated forces and moments;
** CFORCE/CMOMENT are output quantities, not input keywords.
*Amplitude, name=SOCKET_FX, definition=USER
*Amplitude, name=SOCKET_FY, definition=USER
*Amplitude, name=SOCKET_FZ, definition=USER
*Amplitude, name=SOCKET_MX, definition=USER
*Amplitude, name=SOCKET_MY, definition=USER
*Amplitude, name=SOCKET_MZ, definition=USER
*Cload, amplitude=SOCKET_FX
RP_ROBOT, 1, 1.
*Cload, amplitude=SOCKET_FY
RP_ROBOT, 2, 1.
*Cload, amplitude=SOCKET_FZ
RP_ROBOT, 3, 1.
*Cload, amplitude=SOCKET_MX
RP_ROBOT, 4, 1.
*Cload, amplitude=SOCKET_MY
RP_ROBOT, 5, 1.
*Cload, amplitude=SOCKET_MZ
RP_ROBOT, 6, 1.
** 
** OUTPUT REQUESTS
** 
*Restart, write, number interval=1, time marks=NO
** 
** FIELD OUTPUT: F-Output-1
** 
** IMPACT ENERGY DIAGNOSTIC: preserve all existing physics; save contact and energy fields every 1 us.
*Output, field, time interval=1.0e-4, variable=PRESELECT
*Contact Output, general contact
CSTRESS, CFORCE
*Contact Output, surface=ROBOT_SOLID-1.ROBOT_SOLID_SURF
CDISP
** 
** HISTORY OUTPUT: H-Output-1
** 
*Output, history, time interval=1.0e-4
*Energy Output, variable=ALL
*Node Output, nset=RP_ROBOT
COORD, U, UR, V, VR, A, AR, RF, RM, CF

*Output, history, frequency=1, sensor, name=RP_U1
*Node Output, nset=RP_ROBOT
U1
*Output, history, frequency=1, sensor, name=RP_U2
*Node Output, nset=RP_ROBOT
U2
*Output, history, frequency=1, sensor, name=RP_U3
*Node Output, nset=RP_ROBOT
U3
*Output, history, frequency=1, sensor, name=RP_UR1
*Node Output, nset=RP_ROBOT
UR1
*Output, history, frequency=1, sensor, name=RP_UR2
*Node Output, nset=RP_ROBOT
UR2
*Output, history, frequency=1, sensor, name=RP_UR3
*Node Output, nset=RP_ROBOT
UR3
*End Step
