** FROZEN F100 BASELINE; ONLY NEW PHYSICS CHANGE: G 2.0 -> 2.2 mT
** REDUCED_SOUND_SPEED_COARSE_CEL_FAST_SCREEN
** ONE PHYSICS CHANGE FROM AUTHORITATIVE PARENT: A_main 14.8 -> 14.5 deg
** FULL TRANSIT s_start=-3.200000000000 s_finish=4.366533591945 travel=7.566533591945 mm
** LONG_COARSE_TRUECEL_TRANSIT; REDUCED_SOUND_SPEED_LONG_COARSE_CEL
** axial CEL ends: unconstrained Eulerian material-flow boundaries; no explicit pressure outlet
** REDUCED_SOUND_SPEED_COARSE_CEL; qualitative visual transit only; pressure fidelity NOT FINAL
** density and viscosity real; true Eulerian-Lagrangian CEL coupling; U0=0
** TRUE-CEL TECHNICAL STABILITY GATE; QUIESCENT WATER; HARD ROBOT-WALL; AUTO DT SCALE=0.6
** magnetic physics frozen; smooth initialization ramp 0.2 ms; duration 0.5 ms
** AUTHORITATIVE TRUE-CEL SHORT TRANSFER; PRECOMPUTED_TABLE; NO SOCKET; NO SURROGATE HYDRO
** f=120Hz; B0=10mT; G=1.184mT; A_main=14.8deg; A_cross=2.5deg; duration=3ms
** AUTHORITATIVE CASE: TRUECEL_B0P11_G2P20_A14P5_F100_CROT0P3_FULLCEL50
** SOLE PHYSICS CHANGE: MAGNETIC GRADIENT G=0.15 -> 1.184 mT
** NON-CEL FAST_SURROGATE_FLUID; PRECOMPUTED_TABLE; FIVE 120 HZ CYCLES
** HEAD FORWARD/RIGHT; TAIL REAR/LEFT; CANONICAL +s LEFT TO RIGHT
** INHERITED PROVENANCE COMMENTS BELOW ARE NON-AUTHORITATIVE
** F60 G0.15 STRICT TRUE-CEL DYNAMIC SCREEN
** TRUECEL_B0P11_G2P20_A14P5_F100_CROT0P3_FULLCEL50; f=120Hz; A_main=14.8deg; A_cross=2.5deg; G=0.15mT; L=45mm; duration=0.008333333333s
** TRUE RIGID 180deg MESH FLIP ABOUT n_routeA; COM/TUBE/CONTACT/HYDRO COEFFICIENTS FROZEN
** STRICT_CEL_FLUID_PRESENT; ROBOT_LOCAL_ELLIPTIC_ROCKING; FIXED ROUTEA GAUGE; AUTOMATIC EXPLICIT DT
** INITIALIZED_UNIFORM_FLOW_TRUE_CEL; actual Eulerian fluid U0=+10mm/s along canonical +s
** FAST STRAIGHT DYNAMIC SCREEN
** S4_HEADFORWARD_F60_G0P10_FLOW; mode=ROBOT_LOCAL_ELLIPTIC_ROCKING; f=60Hz; A_main=14.3431117114381deg; A_cross=2.5deg; G=0.10mT; L=45mm; duration=0.037500000s
** NON-CEL; SAME RIGID ROBOT/TUBE, ONE-WALL GENERAL CONTACT, MU=0.03, ZETA=0.50, REDUCEDHYDRO, INITIAL POSE, ROUTEA GAUGE, DT=2E-7
** ROUTEA HEAD-TAIL MAGNETIC ROCKING EXISTENCE PROOF
** ROBOT_LOCAL_ROCKING; B0=10mT; alpha_B0=10deg; f=5Hz; phase=0; G=0
** CLEAN INITIAL POSE: robot HEAD-to-TAIL axis aligned with straight local tangent
** ROBOT SHAPE/RIGIDITY, ONE-WALL GENERAL CONTACT, mu=0.03, zeta=0.50, dt=2e-7, AND REDUCED HYDRO UNCHANGED EXCEPT V_REL FLOW
** STRAIGHT-PIPE CONTROL; ONLY PIPE_WALL_HELPER AND FIELD CENTERLINE GEOMETRY CHANGED
** SAME ROBOT/MESH/CONTACT/REDUCED-HYDRO/dt/B/f/cone/bias/G/ramp/phase AS 3CYCLE
** PRODUCTION ROBOT-LOCAL FRAME VALIDATION; EXACTLY THREE 30 HZ CYCLES
** ROBOT_LOCAL_TANGENT; B0=10mT; cone=30deg; Bias=0; G=0; ramp=1ms
** MAGNETIC DRIVE FRAME AUDIT - SCREENING ONLY
** L2.4 D0.815 coarse rigid carrier; one 30 Hz cycle; G=0
** FIELD_MODE=LOCAL_TANGENT_CONE; cone=30.0 deg
** SCREENING ONLY - NOT AN AUTHORITATIVE DESIGN
** CASE GEO_240; global 0.10 mm C3D4 rigid mesh; fixed direct dt=1e-7 s
** FROZEN L2300 WALL-SUPPORTED SCREENING: 29141 C3D4; threshold-aware 5 um acceptance
** CAD L=2.300000 mm D=0.815000 mm; no mesh scaling or refinement
** R014 exterior mesh analytic-field probe; 10 mg; D055; gradient 6 mT; Bias40; forward
** RESTORED ROBOT: _robot_true_R014_source.inp mesh; exact 6 mg; 2.01 mm wall helper offset=0.005 mm
** HIGH-WOBBLE 6 ms PROBE: only damping 0.055 -> 0.020; all other physics unchanged
** BOUNDED MEDIUM PROBE: 6 ms; no geometry/physics change; output 2 us
** COPEN PRECHECK: physics unchanged; robot exterior-only surface output added
** ROBOT CONTACT SANITIZED: TRUE EXTERIOR FACES ONLY
** ROBOT PART TRANSPLANTED FROM UNROUNDED BASE; no stacked fillet
** donor=_robot_true_R014_source.inp
** High-end robot-only stop added; CEL remains open; band=0.8 mm, faces=23
** CAPSULE/FILLET VARIANT; rf=0.1 mm; source=CEL_CurrentCenterline_Cone15_Z110_PolarityPlus_Mu003_Damp055_AfterBendReverse_015.inp
** MATRIX VARIANT: mu003
** Z=110 mm single-variable probe; 5 Hz fixed; m_robot=1.168e-3 A*m^2; adaptive-lead=0.
** POLARITY-PLUS CLOSED-LOOP 0.03 s: +robot_axis_global end assumed N; adaptive-lead=0.
** FULL 3D LIVE-MAGNETIC FORCE/TORQUE CLOSED-LOOP: the force is projected onto the local DXF tangent; torque remains live from Magpylib; endpoint caps are retained in the wall helper; duration=0.008333 s
** FULL 3D LIVE-MAGNETIC FORCE/TORQUE CLOSED-LOOP: the force is projected onto the local DXF tangent; torque remains live from Magpylib; endpoint caps are retained in the wall helper; duration=0.006 s
** FULL 3D LIVE-MAGNETIC FORCE/TORQUE CLOSED-LOOP: the force is projected onto the local DXF tangent; torque remains live from Magpylib; endpoint caps are retained in the wall helper; duration=0.008333 s
** Terminal robot-only outlet stop added at low-s end; CEL remains open; cap_band=0.8 mm, faces=75
** FULL 3D LIVE-MAGNETIC FORCE/TORQUE CLOSED-LOOP: the force is projected onto the local DXF tangent; torque remains live from Magpylib; endpoint caps are retained in the wall helper; duration=0.008333 s
** FORWARD-ONLY DIAGNOSTIC: live Magpylib force projected onto the local DXF pipe tangent; magnetic torque is disabled; 0.010 s probe
** WALL/CEL FACTORIAL DIAGNOSTIC; only contact inclusions changed
** CEL boundary-wall probe: Pipe_SOLID retained as fixed mass but excluded from contact; helper R3D4 wall offset=0.2 mm, end caps removed=98
*Heading
** AUTHORIZED 8.333 ms WALL-ON WOBBLE-SURVIVAL PROBE: Wobble_F30_G6L45_WallOn_Free_0083_WobbleSurvival; G6/L45; f=30 Hz
** WALL-ON FREE-TRANSLATION PROBE: Wobble_F30_G6L45_WallOn_Free_0083_WobbleSurvival; spin=30 Hz; duration=8.333 ms
** WALL/CEL FACTORIAL: Wobble_F30_G6L45_WallOn_Free_0083_WobbleSurvival; Wall=ON; CEL=ON; 1.8 ms; phase=248 deg; gradient=6.000 mT=0.006000 T; spin=30 Hz
** FREE-TRANSLATION PROBE: F30; cone30; B=10 mT; Wall-ON; CEL-ON; translations fixed, rotations free
** Robot refined contact mesh, centerline translation + tangent-following orientation
** Job name: Job_RouteA_CEL_SOLID_robotfine Model name: RouteA_SolidCEL_Probe
** Generated by: Abaqus/CAE 2025
*Preprint, echo=NO, model=NO, history=NO, contact=NO
**
** PARTS
**
**
** TRUE CEL LOCAL STRAIGHT DOMAIN: 80 x 6 x 6 EC3D8R cells; h=0.15 mm
** REPAIRED TRUE-CEL DOMAIN: actual lumen coverage; h=0.15 mm
**
** TRUE CEL SHORT DOMAIN: 30 x 10 x 10 EC3D8R; ds=0.25 mm; dq=0.15 mm
** TRUE CEL STABILITY DOMAIN: 25 x 20 x 20 EC3D8R; ds=0.24; dq=0.075 mm
** TRUE CEL STABILITY DOMAIN: 25 x 20 x 20 EC3D8R; ds=0.24; dq=0.075 mm
** LONG COARSE CEL DOMAIN: 44 x 20 x 20 EC3D8R; ds=0.272727272727; dq=0.075000000000 mm
*Part, name=FLUID_EULERIAN
*Node
1, -13.232571746416, -4.114654206627, -11.475610969847
2, -12.966313575440, -4.131517486103, -11.419021381733
3, -12.700055404463, -4.148380765579, -11.362431793619
4, -12.433797233487, -4.165244045055, -11.305842205505
5, -12.167539062511, -4.182107324531, -11.249252617391
6, -11.901280891534, -4.198970604007, -11.192663029277
7, -11.635022720558, -4.215833883482, -11.136073441162
8, -11.368764549582, -4.232697162958, -11.079483853048
9, -11.102506378606, -4.249560442434, -11.022894264934
10, -10.836248207629, -4.266423721910, -10.966304676820
11, -10.569990036653, -4.283287001386, -10.909715088706
12, -10.303731865677, -4.300150280862, -10.853125500592
13, -10.037473694700, -4.317013560337, -10.796535912477
14, -9.771215523724, -4.333876839813, -10.739946324363
15, -9.504957352748, -4.350740119289, -10.683356736249
16, -9.238699181771, -4.367603398765, -10.626767148135
17, -8.972441010795, -4.384466678241, -10.570177560021
18, -8.706182839819, -4.401329957716, -10.513587971906
19, -8.439924668843, -4.418193237192, -10.456998383792
20, -8.173666497866, -4.435056516668, -10.400408795678
** ... 19825 like lines cut
*Element, type=EC3D8R
1, 1, 2, 47, 46, 946, 947, 992, 991
2, 2, 3, 48, 47, 947, 948, 993, 992
3, 3, 4, 49, 48, 948, 949, 994, 993
4, 4, 5, 50, 49, 949, 950, 995, 994
5, 5, 6, 51, 50, 950, 951, 996, 995
6, 6, 7, 52, 51, 951, 952, 997, 996
7, 7, 8, 53, 52, 952, 953, 998, 997
8, 8, 9, 54, 53, 953, 954, 999, 998
9, 9, 10, 55, 54, 954, 955, 1000, 999
10, 10, 11, 56, 55, 955, 956, 1001, 1000
11, 11, 12, 57, 56, 956, 957, 1002, 1001
12, 12, 13, 58, 57, 957, 958, 1003, 1002
13, 13, 14, 59, 58, 958, 959, 1004, 1003
14, 14, 15, 60, 59, 959, 960, 1005, 1004
15, 15, 16, 61, 60, 960, 961, 1006, 1005
16, 16, 17, 62, 61, 961, 962, 1007, 1006
17, 17, 18, 63, 62, 962, 963, 1008, 1007
18, 18, 19, 64, 63, 963, 964, 1009, 1008
19, 19, 20, 65, 64, 964, 965, 1010, 1009
20, 20, 21, 66, 65, 965, 966, 1011, 1010
** ... 17580 like lines cut
*Elset, elset=FLUID_CEL_BODY, generate
1, 17600, 1
*Nset, nset=FLUID_CEL_NODES, generate
1, 19845, 1
*Eulerian Section, elset=FLUID_CEL_BODY
MAT_FLUID_CEL, WATER
*End Part
**
*Part, name=Pipe_WALL_HELPER
*Node
1, -19.2778697489, -2.56472286113, -11.4865091191
2, -19.3034056993, -2.7224333001, -11.4133571423
3, -19.3207725728, -2.89462529144, -11.3829566679
4, -19.3287868459, -3.06956423552, -11.397379438
5, -19.326902359, -3.23532833238, -11.4556425647
6, -19.3152475367, -3.38062103277, -11.553775512
7, -19.294616636, -3.49554087926, -11.6850906819
8, -19.2664156186, -3.57225627423, -11.8406391625
9, -19.2325663373, -3.60553919028, -12.0098205819
10, -19.1953755647, -3.5931214517, -12.181105506
11, -19.1573777904, -3.53584930685, -12.3428211503
12, -19.1211625, -3.43762575774, -12.4839468608
13, -19.0891977056, -3.30514457694, -12.5948651536
14, -19.0636617552, -3.14743413797, -12.6680171303
15, -19.0462948816, -2.97524214662, -12.6984176047
16, -19.0382806086, -2.80030320255, -12.6839948346
17, -19.0401650955, -2.63453910568, -12.625731708
18, -19.0518199178, -2.48924640529, -12.5275987606
19, -19.0724508185, -2.3743265588, -12.3962835907
20, -19.1006518359, -2.29761116383, -12.2407351101
** ... 2884 like lines cut
*Element, type=R3D4
1, 1, 25, 26, 2
2, 2, 26, 27, 3
3, 3, 27, 28, 4
4, 4, 28, 29, 5
5, 5, 29, 30, 6
6, 6, 30, 31, 7
7, 7, 31, 32, 8
8, 8, 32, 33, 9
9, 9, 33, 34, 10
10, 10, 34, 35, 11
11, 11, 35, 36, 12
12, 12, 36, 37, 13
13, 13, 37, 38, 14
14, 14, 38, 39, 15
15, 15, 39, 40, 16
16, 16, 40, 41, 17
17, 17, 41, 42, 18
18, 18, 42, 43, 19
19, 19, 43, 44, 20
20, 20, 44, 45, 21
** ... 2860 like lines cut
*Elset, elset=PIPE_WALL_HELPER_ALL, generate
1, 2880, 1
*Surface, type=ELEMENT, name=PIPE_WALL_HELPER_SURF
PIPE_WALL_HELPER_ALL, SPOS
*End Part
** Robot-only terminal stop; not included in CEL material contact
*Part, name=Pipe_TERMINAL_STOP
*Node
       1, -17.8120422, -16.0254612, -1.98043847
       2, -18.0087299, -16.4204502, -1.75030053
       3, -18.288311, -16.5256882, -2.16986728
       4, -18.0916214, -16.1306992, -2.40000534
       5, -18.3395977, -16.7643833, -2.62337637
       6, -18.1429081, -16.3693943, -2.85351443
       7, -18.1488495, -17.0725784, -2.9893105
       8, -17.9521599, -16.6775894, -3.21944857
       9, -17.7671776, -17.367691, -3.16961789
      10, -17.570488, -16.972702, -3.39975595
      11, -17.6153526, -15.6304722, -2.21057653
      12, -17.8949337, -15.7357101, -2.63014317
      13, -17.9462204, -15.9744062, -3.08365226
      14, -17.7554722, -16.2826004, -3.44958639
      15, -17.3737984, -16.577713, -3.62989378
      16, -17.4186649, -15.2354832, -2.44071436
      17, -17.6982441, -15.3407211, -2.86028123
      18, -17.7495308, -15.5794172, -3.31379032
      19, -17.5587826, -15.8876114, -3.67972445
      20, -17.1771107, -16.182724, -3.86003184
** ... 82 like lines cut
*Element, type=R3D4
       1, 1, 2, 3, 4
       2, 4, 3, 5, 6
       3, 6, 5, 7, 8
       4, 8, 7, 9, 10
       5, 11, 1, 4, 12
       6, 12, 4, 6, 13
       7, 13, 6, 8, 14
       8, 14, 8, 10, 15
       9, 16, 11, 12, 17
      10, 17, 12, 13, 18
      11, 18, 13, 14, 19
      12, 19, 14, 15, 20
      13, 21, 16, 17, 22
      14, 22, 17, 18, 23
      15, 23, 18, 19, 24
      16, 24, 19, 20, 25
      17, 26, 21, 22, 27
      18, 27, 22, 23, 28
      19, 28, 23, 24, 29
      20, 29, 24, 25, 30
** ... 55 like lines cut
*Elset, elset=PIPE_TERMINAL_STOP_ALL, generate
1, 75, 1
*Surface, type=ELEMENT, name=PIPE_TERMINAL_STOP_SURF
PIPE_TERMINAL_STOP_ALL, SPOS
*End Part
** Robot-only HIGH terminal stop; CEL material remains open
*Part, name=Pipe_TERMINAL_STOP_HIGH
*Node
       1, 6.27608633, -5.94825697, -5.65262365
       2, 6.23722649, -5.56458235, -5.31121445
       3, 6.34579229, -5.31667519, -5.61977959
       4, 6.38327122, -5.54258728, -5.87859058
       5, 6.42685938, -5.04812479, -5.80939579
       6, 6.46756983, -5.20532656, -6.0474062
       7, 6.27052021, -5.06325388, -5.19791079
       8, 6.33665085, -5.0666728, -5.4613657
       9, 6.36704683, -4.57860231, -5.34307146
      10, 6.40535831, -4.81330633, -5.60947752
      11, 6.58144331, -4.56312513, -6.18421125
      12, 6.53330231, -4.8993721, -6.15803194
      13, 6.48639822, -4.85262394, -5.94950342
      14, 6.49429512, -4.60639381, -5.86038208
      15, 6.58811331, -4.99606991, -6.42228222
      16, 6.52141619, -5.31991053, -6.3165822
      17, 6.44574213, -5.67432833, -6.19029665
      18, 6.65065527, -4.65971994, -6.50541687
      19, 6.5850873, -5.45662498, -6.63546896
      20, 6.51303816, -5.71766949, -6.47788239
** ... 10 like lines cut
*Element, type=R3D4
       1, 1, 2, 3, 4
       2, 4, 3, 5, 6
       3, 2, 7, 8, 3
       4, 9, 10, 8, 7
       5, 11, 12, 13, 14
       6, 6, 12, 15, 16
       7, 6, 16, 17, 4
       8, 18, 15, 12, 11
       9, 13, 5, 10, 14
      10, 16, 19, 20, 17
      11, 21, 22, 17, 20
      12, 9, 23, 14, 10
      13, 14, 23, 24, 11
      14, 24, 25, 18, 11
      15, 18, 25, 26, 27
      16, 27, 26, 28, 29
      17, 12, 6, 5, 13
      18, 22, 1, 4, 17
      19, 20, 19, 30, 21
      20, 18, 27, 29, 15
      21, 29, 28, 30, 19
      22, 29, 19, 16, 15
      23, 5, 3, 8, 10
*Elset, elset=PIPE_TERMINAL_STOP_HIGH_ALL, generate
1, 23, 1
*Surface, type=ELEMENT, name=PIPE_TERMINAL_STOP_HIGH_SURF
PIPE_TERMINAL_STOP_HIGH_ALL, SPOS
*End Part
*Part, name=Pipe_SOLID
*Node
      1,  -16.5284824,  -17.2844334,  -1.96806526
      2,  -18.3441372,  -16.7630806,  -2.62501884
      3,  -13.0335417,  -6.09837723,  -8.83874321
      4,  -11.2178869,  -6.61973047,   -8.1817894
      5,  -6.19710016,  -2.70104122,  -9.94260216
      6,   6.73808718,  -4.29859257,  -6.67496824
      7,   6.27492857,  -5.95239115,  -5.65006161
      8,  -6.66025925,   -4.3548398,    -8.917696
      9,  -16.7201881,  -16.9746914,  -1.60029233
     10,  -17.1037788,  -16.6780949,  -1.41907883
     11,  -17.5764713,  -16.4741192,  -1.47298098
     12,  -18.0116062,  -16.4174194,  -1.74755561
     13,   -18.292593,  -16.5231857,   -2.1692307
     14,  -18.1524296,  -17.0728245,  -2.99279189
     15,  -17.7688389,  -17.3694191,  -3.17400527
     16,  -17.2961483,  -17.5733948,  -3.12010312
     17,  -16.8610115,  -17.6300964,  -2.84552836
     18,  -16.5800266,  -17.5243282,   -2.4238534
     19,  -18.1474476,  -16.3680916,  -2.85515666
     20,  -17.9507599,  -15.9731026,  -3.08529472
** ... 1325 like lines cut
*Element, type=C3D4
   1,  843,  844,  845,  846
   2,  847,  671,  848,  676
   3,  846,  849,  845,  850
   4,  846,  851,  849,  850
   5,  849,  852,  851,  846
   6,  853,  849,  852,  851
   7,  846,  854,  855,  851
   8,  846,  852,  851,  855
   9,  856,  498,  857,  858
  10,  859,  860,  861,  862
  11,  859,  863,  860,  862
  12,  859,  864,  865,  866
  13,  867,  499,  494,  495
  14,  868,  869,  870,  859
  15,  871,  872,  873,   21
  16,  859,  869,  863,  874
  17,  859,  875,  862,  866
  18,  859,  876,  875,  868
  19,  877,  586,  843,  587
  20,  876,  869,  868,  859
** ... 5183 like lines cut
*Nset, nset=PIPE_CEL_BODY, generate
    1,  1345,     1
*Elset, elset=PIPE_CEL_BODY, generate
    1,  5203,     1
*Elset, elset=PIPE_SOLID_ALL, generate
1, 5203, 1
*Surface, type=ELEMENT, name=PIPE_SOLID_SURF
PIPE_SOLID_ALL, S1
PIPE_SOLID_ALL, S2
PIPE_SOLID_ALL, S3
PIPE_SOLID_ALL, S4
** Section: SEC_PIPE_RIGID
*Solid Section, elset=PIPE_CEL_BODY, material=MAT_PIPE_RIGID
,
*End Part
**
** SCREENING ONLY: exact STEP import; no node scaling
*Part, name=Robot_SOLID
*Node
1, -11.763434150011, -2.985750955408, -10.529796531146
2, -9.501672672955, -3.128998074384, -10.049089591962
3, -9.262642085485, -3.548274276779, -9.933421806815
4, -11.745416520221, -3.012580382848, -10.622565774766
5, -11.730627457282, -3.061199413658, -10.706637515036
6, -11.719926443671, -3.128782498878, -10.777125830936
7, -11.713935388471, -3.211401938298, -10.829934168936
8, -11.713002465691, -3.304256191928, -10.861993521236
9, -11.717181897173, -3.401948917417, -10.871440700036
10, -11.726230786452, -3.498802565628, -10.857726683036
11, -11.739623244953, -3.589188353847, -10.821648479236
12, -11.756580953732, -3.667853381458, -10.765302810536
13, -11.776118390821, -3.730225936638, -10.691964294136
14, -11.797100115402, -3.772681148018, -10.605895077596
15, -11.818306738593, -3.792751665927, -10.512097223146
16, -11.838505814202, -3.789271069488, -10.416021895846
17, -11.856523443992, -3.762441642038, -10.323252652226
18, -11.871312506942, -3.713822611238, -10.239180911926
19, -11.882013520542, -3.646239526028, -10.168692596016
20, -11.888004575731, -3.563620086588, -10.115884258026
** ... 1568 like lines cut
*Element, type=C3D4
1, 706, 707, 708, 709
2, 710, 711, 712, 713
3, 711, 712, 713, 714
4, 714, 715, 712, 716
5, 714, 717, 715, 716
6, 714, 717, 707, 718
7, 719, 720, 600, 601
8, 721, 722, 723, 724
9, 725, 726, 727, 333
10, 722, 728, 729, 730
11, 722, 724, 731, 732
12, 722, 733, 734, 735
13, 722, 736, 729, 732
14, 714, 709, 737, 738
15, 714, 738, 739, 709
16, 739, 740, 738, 741
17, 709, 708, 742, 740
18, 708, 739, 740, 709
19, 714, 739, 718, 709
20, 739, 718, 709, 708
** ... 7282 like lines cut
*Elset, elset=ROBOT_EXTERIOR_S1
30, 47, 68, 171, 237, 299, 345, 360, 404, 418, 501, 544, 546, 667, 872, 937
1023, 1055, 1129, 1159, 1183, 1184, 1202, 1205, 1250, 1323, 1356, 1385, 1408, 1449, 1499, 1527
1608, 1610, 1617, 1618, 1621, 1627, 1629, 1635, 1636, 1650, 1657, 1665, 1685, 1686, 1687, 1688
1693, 1702, 1704, 1707, 1708, 1709, 1718, 1722, 1724, 1728, 1731, 1734, 1746, 1748, 1749, 1759
1761, 1763, 1764, 1775, 1782, 1787, 1789, 1794, 1804, 1814, 1816, 1820, 1823, 1826, 1828, 1831
1837, 1841, 1849, 1861, 1863, 1866, 1868, 1870, 1872, 1875, 1882, 1886, 1888, 1890, 1895, 1899
1901, 1917, 1918, 1919, 1922, 1923, 1926, 1928, 1929, 1930, 1931, 1933, 1935, 1941, 1946, 1949
1951, 1952, 1955, 1961, 1963, 1964, 1967, 1978, 1979, 1981, 1982, 1988, 1990, 1993, 1996, 1997
1998, 2013, 2016, 2031, 2038, 2042, 2054, 2059, 2063, 2066, 2073, 2077, 2078, 2082, 2084, 2087
2089, 2095, 2096, 2100, 2115, 2118, 2119, 2122, 2137, 2141, 2144, 2145, 2148, 2149, 2155, 2162
2165, 2169, 2171, 2172, 2173, 2176, 2177, 2182, 2186, 2195, 2200, 2206, 2208, 2219, 2220, 2221
2226, 2228, 2230, 2235, 2238, 2242, 2250, 2254, 2258, 2262, 2266, 2267, 2268, 2274, 2279, 2281
2284, 2286, 2293, 2294, 2295, 2299, 2303, 2315, 2317, 2323, 2324, 2332, 2334, 2338, 2340, 2343
2351, 2352, 2353, 2357, 2358, 2362, 2367, 2370, 2371, 2374, 2379, 2382, 2384, 2385, 2386, 2387
2393, 2398, 2399, 2401, 2407, 2410, 2414, 2415, 2418, 2421, 2422, 2423, 2428, 2434, 2437, 2439
2440, 2444, 2445, 2450, 2455, 2462, 2464, 2467, 2471, 2476, 2478, 2481, 2484, 2489, 2494, 2495
2498, 2504, 2505, 2508, 2510, 2511, 2517, 2518, 2520, 2526, 2528, 2536, 2538, 2540, 2541, 2544
2547, 2549, 2559, 2560, 2570, 2571, 2574, 2578, 2584, 2592, 2595, 2599, 2609, 2610, 2613, 2614
2615, 2618, 2626, 2630, 2637, 2639, 2640, 2641, 2645, 2648, 2653, 2657, 2658, 2663, 2664, 2668
2671, 2675, 2676, 2677, 2681, 2683, 2687, 2692, 2700, 2704, 2707, 2715, 2724, 2725, 2726, 2737
** ... 57 like lines cut
*Elset, elset=ROBOT_EXTERIOR_S2
1146, 1523, 1627, 1654, 1800, 1842, 1870, 1930, 2106, 2140, 2241, 2257, 2277, 2307, 2347, 2485
2579, 2706, 2867, 2939, 3028, 3350, 3425, 3584, 3677, 3913, 4029, 4054, 4064, 4178, 4270, 4329
4377, 4435, 4440, 4453, 4461, 4770, 4895, 5091, 5188, 5256, 5446, 5449, 5450, 5496, 5617, 5629
5643, 5676, 5699, 5716, 5760, 5795, 5831, 5910, 6178, 6229, 6349, 6371, 6556, 6562, 6585, 6634
6641, 6690, 6796, 6922, 7102, 7194
*Elset, elset=ROBOT_EXTERIOR_S3
134, 1142, 1323, 1539, 1625, 1741, 1745, 1880, 1911, 1981, 2156, 2176, 2194, 2216, 2220, 2227
2234, 2274, 2275, 2276, 2300, 2314, 2327, 2348, 2425, 2430, 2717, 2784, 2972, 3227, 3294, 3468
3505, 3512, 3639, 3745, 3776, 3787, 3943, 3955, 3984, 4011, 4110, 4127, 4273, 4418, 4436, 4661
4752, 4776, 4897, 4929, 4933, 5094, 5405, 5673, 5823, 5834, 5904, 5930, 5953, 5967, 5994, 6112
6139, 6156, 6209
*Elset, elset=ROBOT_EXTERIOR_S4
501, 940, 1143, 1610, 1636, 1655, 1699, 1790, 1826, 1929, 1931, 2115, 2199, 2208, 2291, 2302
2319, 2335, 2339, 3008, 3082, 3236, 3288, 3972, 4107, 4155, 4193, 4228, 4471, 4549, 4598, 4703
4923, 5027, 5873, 5880, 5934, 6051, 6088, 6315, 6564, 6610, 6633, 6733, 6865, 6997, 7210
*Nset, nset=ROBOT_CEL_BODY, generate
1, 1588, 1
*Elset, elset=ROBOT_CEL_BODY, generate
1, 7302, 1
*Elset, elset=ROBOT_SOLID_ALL, generate
1, 7302, 1
*Surface, type=ELEMENT, name=ROBOT_SOLID_SURF
ROBOT_EXTERIOR_S1, S1
ROBOT_EXTERIOR_S2, S2
ROBOT_EXTERIOR_S3, S3
ROBOT_EXTERIOR_S4, S4
*Solid Section, elset=ROBOT_CEL_BODY, material=MAT_ROBOT_RIGID
,
*Nset, nset=TAIL_REGION
1, 4, 5, 6, 7, 8, 9, 10, 11, 12, 13, 14, 15, 16, 17, 18
19, 20, 21, 22, 23, 24, 25, 26, 27, 28, 29, 30, 78, 79, 80, 81
82, 83, 84, 85, 86, 87, 88, 89, 90, 91, 92, 93, 94, 95, 96, 97
98, 99, 100, 101, 102, 103, 104, 105, 106, 107, 108, 109, 110, 111, 112, 113
114, 115, 116, 117, 118, 119, 120, 121, 122, 123, 124, 125, 126, 127, 128, 129
130, 131, 132, 133, 134, 135, 136, 137, 138, 139, 140, 141, 142, 143, 144, 145
146, 147, 148, 149, 150, 151, 152, 153, 154, 155, 156, 157, 158, 159, 160, 161
162, 163, 164, 165, 166, 167, 168, 169, 170, 171, 172, 173, 174, 175, 176, 177
178, 710, 711, 712, 713, 716, 813, 839, 840, 953, 956, 957, 959, 960, 1024, 1146
1147, 1148, 1149, 1155, 1168, 1171, 1172, 1173, 1219, 1253, 1254, 1255, 1256, 1326, 1332, 1334
1341, 1342, 1344, 1345, 1348, 1359, 1360, 1361, 1362, 1368, 1369, 1370, 1372, 1383, 1384, 1397
1398, 1404, 1405, 1406, 1410, 1411, 1415, 1416, 1422, 1427, 1428, 1429, 1430, 1431, 1447, 1449
1450, 1451, 1452, 1453, 1478, 1496, 1497, 1498, 1506, 1514, 1521, 1522, 1523, 1525, 1526, 1527
1529, 1530, 1534, 1535, 1536, 1537, 1538, 1539, 1540, 1543, 1544, 1552, 1555, 1558, 1562
*Nset, nset=HEAD_REGION
3, 74, 75, 76, 77, 629, 630, 631, 632, 633, 634, 635, 636, 637, 638, 639
640, 641, 642, 643, 644, 645, 646, 647, 648, 649, 650, 651, 652, 653, 654, 655
656, 657, 658, 659, 660, 661, 662, 663, 664, 665, 666, 667, 668, 669, 670, 671
672, 673, 674, 675, 676, 677, 678, 679, 680, 681, 682, 683, 684, 685, 686, 687
688, 689, 690, 691, 692, 693, 694, 695, 696, 697, 698, 699, 700, 701, 702, 703
704, 705, 744, 745, 746, 819, 992, 1074, 1075, 1076, 1078, 1094, 1098, 1099, 1106, 1110
1111, 1112, 1113, 1114, 1144, 1150, 1152, 1153, 1216, 1222, 1297, 1313, 1314, 1387, 1445, 1446
1489, 1582
*Nset, nset=BODY_REGION
2, 31, 32, 33, 34, 35, 36, 37, 38, 39, 40, 41, 42, 43, 44, 45
46, 47, 48, 49, 50, 51, 52, 53, 54, 55, 56, 57, 58, 59, 60, 61
62, 63, 64, 65, 66, 67, 68, 69, 70, 71, 72, 73, 179, 180, 181, 182
183, 184, 185, 186, 187, 188, 189, 190, 191, 192, 193, 194, 195, 196, 197, 198
199, 200, 201, 202, 203, 204, 205, 206, 207, 208, 209, 210, 211, 212, 213, 214
215, 216, 217, 218, 219, 220, 221, 222, 223, 224, 225, 226, 227, 228, 229, 230
231, 232, 233, 234, 235, 236, 237, 238, 239, 240, 241, 242, 243, 244, 245, 246
247, 248, 249, 250, 251, 252, 253, 254, 255, 256, 257, 258, 259, 260, 261, 262
263, 264, 265, 266, 267, 268, 269, 270, 271, 272, 273, 274, 275, 276, 277, 278
279, 280, 281, 282, 283, 284, 285, 286, 287, 288, 289, 290, 291, 292, 293, 294
295, 296, 297, 298, 299, 300, 301, 302, 303, 304, 305, 306, 307, 308, 309, 310
311, 312, 313, 314, 315, 316, 317, 318, 319, 320, 321, 322, 323, 324, 325, 326
327, 328, 329, 330, 331, 332, 333, 334, 335, 336, 337, 338, 339, 340, 341, 342
343, 344, 345, 346, 347, 348, 349, 350, 351, 352, 353, 354, 355, 356, 357, 358
359, 360, 361, 362, 363, 364, 365, 366, 367, 368, 369, 370, 371, 372, 373, 374
375, 376, 377, 378, 379, 380, 381, 382, 383, 384, 385, 386, 387, 388, 389, 390
391, 392, 393, 394, 395, 396, 397, 398, 399, 400, 401, 402, 403, 404, 405, 406
407, 408, 409, 410, 411, 412, 413, 414, 415, 416, 417, 418, 419, 420, 421, 422
423, 424, 425, 426, 427, 428, 429, 430, 431, 432, 433, 434, 435, 436, 437, 438
439, 440, 441, 442, 443, 444, 445, 446, 447, 448, 449, 450, 451, 452, 453, 454
** ... 59 like lines cut
*End Part
**
**
** ASSEMBLY
**
*Assembly, name=Assembly
*Instance, name=Pipe_WALL_HELPER-1, part=Pipe_WALL_HELPER
*End Instance
**
*Instance, name=Pipe_TERMINAL_STOP-1, part=Pipe_TERMINAL_STOP
*End Instance
**
*Instance, name=Pipe_TERMINAL_STOP_HIGH-1, part=Pipe_TERMINAL_STOP_HIGH
*End Instance
**
*Elset, elset=PIPE_TERMINAL_STOP_CEL_ALL, instance=Pipe_TERMINAL_STOP-1, generate
1, 75, 1
*Elset, elset=PIPE_TERMINAL_STOP_HIGH_CEL_ALL, instance=Pipe_TERMINAL_STOP_HIGH-1, generate
1, 23, 1
*Elset, elset=PIPE_WALL_HELPER_CEL_ALL, instance=Pipe_WALL_HELPER-1, generate
1, 2880, 1
**
*Instance, name=Pipe_SOLID-1, part=Pipe_SOLID
*End Instance
**
*Instance, name=Robot_SOLID-1, part=Robot_SOLID
*End Instance
**
*Instance, name=Fluid_EULERIAN-1, part=FLUID_EULERIAN
*End Instance
*Elset, elset=FLUID_CEL_ALL, instance=Fluid_EULERIAN-1, generate
1, 17600, 1
*Elset, elset=FLUID_CEL_INIT_ALL, instance=Fluid_EULERIAN-1
2069, 2070, 2071, 2072, 2073, 2074, 2075, 2076, 2077, 2078, 2079, 2080, 2081, 2082, 2083, 2084
2085, 2086, 2087, 2088, 2089, 2090, 2091, 2092, 2093, 2094, 2095, 2096, 2097, 2098, 2099, 2100
2101, 2102, 2103, 2104, 2105, 2106, 2107, 2108, 2109, 2110, 2111, 2112, 2113, 2114, 2115, 2116
2117, 2118, 2119, 2120, 2121, 2122, 2123, 2124, 2125, 2126, 2127, 2128, 2129, 2130, 2131, 2132
2133, 2134, 2135, 2136, 2137, 2138, 2139, 2140, 2141, 2142, 2143, 2144, 2145, 2146, 2147, 2148
2149, 2150, 2151, 2152, 2153, 2154, 2155, 2156, 2157, 2158, 2159, 2160, 2161, 2162, 2163, 2164
2165, 2166, 2167, 2168, 2169, 2170, 2171, 2172, 2173, 2174, 2175, 2176, 2177, 2178, 2179, 2180
2181, 2182, 2183, 2184, 2185, 2186, 2187, 2188, 2189, 2190, 2191, 2192, 2193, 2194, 2195, 2196
2197, 2198, 2199, 2200, 2201, 2202, 2203, 2204, 2205, 2206, 2207, 2208, 2209, 2210, 2211, 2212
2213, 2214, 2215, 2216, 2217, 2218, 2219, 2220, 2221, 2222, 2223, 2224, 2225, 2226, 2227, 2228
2229, 2230, 2231, 2232, 2233, 2234, 2235, 2236, 2237, 2238, 2239, 2240, 2241, 2242, 2243, 2244
2245, 2246, 2247, 2248, 2249, 2250, 2251, 2252, 2253, 2254, 2255, 2256, 2257, 2258, 2259, 2260
2261, 2262, 2263, 2264, 2265, 2266, 2267, 2268, 2269, 2270, 2271, 2272, 2273, 2274, 2275, 2276
2277, 2278, 2279, 2280, 2281, 2282, 2283, 2284, 2285, 2286, 2287, 2288, 2289, 2290, 2291, 2292
2293, 2294, 2295, 2296, 2297, 2298, 2299, 2300, 2301, 2302, 2303, 2304, 2305, 2306, 2307, 2308
2309, 2310, 2311, 2312, 2313, 2314, 2315, 2316, 2317, 2318, 2319, 2320, 2321, 2322, 2323, 2324
2325, 2326, 2327, 2328, 2329, 2330, 2331, 2332, 2861, 2862, 2863, 2864, 2865, 2866, 2867, 2868
2869, 2870, 2871, 2872, 2873, 2874, 2875, 2876, 2877, 2878, 2879, 2880, 2881, 2882, 2883, 2884
2885, 2886, 2887, 2888, 2889, 2890, 2891, 2892, 2893, 2894, 2895, 2896, 2897, 2898, 2899, 2900
2901, 2902, 2903, 2904, 2905, 2906, 2907, 2908, 2909, 2910, 2911, 2912, 2913, 2914, 2915, 2916
** ... 477 like lines cut
**
*Elset, elset=PIPE_SOLID_CEL_ALL, instance=Pipe_SOLID-1, generate
1, 5203, 1
*Elset, elset=ROBOT_SOLID_CEL_ALL, instance=Robot_SOLID-1, generate
1, 7302, 1
**
*Node
      1,  -5.80302477,  -9.99273777,  -5.95533371
*Node
      2, -10.591104434431, -3.464137020896, -10.215768586540
*Nset, nset=RP_PIPE
 1,
*Nset, nset=RP_ROBOT
 2,
*Elset, elset=PIPE_RIGID_ALL
PIPE_SOLID_CEL_ALL,
PIPE_WALL_HELPER_CEL_ALL,
PIPE_TERMINAL_STOP_CEL_ALL,
PIPE_TERMINAL_STOP_HIGH_CEL_ALL,
*Rigid Body, ref node=RP_PIPE, elset=PIPE_RIGID_ALL
** Constraint: RB_PIPE
** Constraint: RB_ROBOT
*Rigid Body, ref node=RP_ROBOT, elset=ROBOT_SOLID_CEL_ALL
*Surface, type=EULERIAN MATERIAL, name=FLUID_CEL_SURF
Fluid_EULERIAN-1_WATER
*End Assembly
** FAST_SURROGATE_FLUID: no CEL mesh, EOS, advection, or fluid contact.
** STRICT ZERO-OVERLAP CONSERVATIVE WATER INITIALIZATION
*Initial Conditions, type=VOLUME FRACTION
FLUID_CEL_INIT_ALL, Fluid_EULERIAN-1_WATER, 1.0
*Initial Conditions, type=VELOCITY
Fluid_EULERIAN-1.FLUID_CEL_NODES, 1, 0.0
Fluid_EULERIAN-1.FLUID_CEL_NODES, 2, 0.0
Fluid_EULERIAN-1.FLUID_CEL_NODES, 3, 0.0
** MATERIALS
**
*Material, name=MAT_FLUID_CEL
*Density
1.0007e-09,
*Eos, type=USUP
100000, 0., 0.
*Viscosity
7.1e-10,
*Material, name=MAT_PIPE_RIGID
*Density
 1e-09,
*Elastic
 1e+06, 0.3
*Material, name=MAT_ROBOT_RIGID
*Density
7.80906654321e-09,
*Elastic
 1e+06, 0.3
**
** INTERACTION PROPERTIES
**
*Surface Interaction, name=PROP_CEL_HARD
*Friction
0.03,
*Surface Behavior, pressure-overclosure=SCALE FACTOR
50.0, , 10.0, 0.10
*Contact Damping, definition=CRITICAL DAMPING FRACTION, tangent fraction=0.0
1.0
*Surface Interaction, name=PROP_CEL_FLUID_HARD
*Friction
0.03,
*Surface Behavior, pressure-overclosure=HARD
**
** BOUNDARY CONDITIONS
**
** Name: BC_PIPE_FIXED Type: Symmetry/Antisymmetry/Encastre
*Boundary
RP_PIPE, ENCASTRE
** ----------------------------------------------------------------
**
** STEP: Step_Drive
**
*Contact
*Contact Inclusions
ROBOT_SOLID-1.ROBOT_SOLID_SURF, Pipe_WALL_HELPER-1.PIPE_WALL_HELPER_SURF
ROBOT_SOLID-1.ROBOT_SOLID_SURF, FLUID_CEL_SURF
Pipe_WALL_HELPER-1.PIPE_WALL_HELPER_SURF, FLUID_CEL_SURF
*Contact Property Assignment
ROBOT_SOLID-1.ROBOT_SOLID_SURF, Pipe_WALL_HELPER-1.PIPE_WALL_HELPER_SURF, PROP_CEL_HARD
ROBOT_SOLID-1.ROBOT_SOLID_SURF, FLUID_CEL_SURF, PROP_CEL_FLUID_HARD
Pipe_WALL_HELPER-1.PIPE_WALL_HELPER_SURF, FLUID_CEL_SURF, PROP_CEL_FLUID_HARD
** FAST_SURROGATE, PRECOMPUTED_TABLE, fixed refined geometry.
*Step, name=Step_Drive, nlgeom=YES
*Dynamic, Explicit, SCALE FACTOR=0.4
, 0.050000000000
*Bulk Viscosity
0.06, 1.2
**
** BOUNDARY CONDITIONS
**
** PRECOMPUTED_TABLE magnetic loads plus FAST_SURROGATE_FLUID.
** No Python, TCP, Magpylib, CEL, prescribed motion, or velocity clamp during dynamics.
*Amplitude, name=SOCKET_FX, definition=USER
*Amplitude, name=SOCKET_FY, definition=USER
*Amplitude, name=SOCKET_FZ, definition=USER
*Amplitude, name=SOCKET_MX, definition=USER
*Amplitude, name=SOCKET_MY, definition=USER
*Amplitude, name=SOCKET_MZ, definition=USER
*Cload, amplitude=SOCKET_FX
RP_ROBOT, 1, 1.
*Cload, amplitude=SOCKET_FY
RP_ROBOT, 2, 1.
*Cload, amplitude=SOCKET_FZ
RP_ROBOT, 3, 1.
*Cload, amplitude=SOCKET_MX
RP_ROBOT, 4, 1.
*Cload, amplitude=SOCKET_MY
RP_ROBOT, 5, 1.
*Cload, amplitude=SOCKET_MZ
RP_ROBOT, 6, 1.
** FAST_SURROGATE_FLUID = OFF; TRUE CEL supplies all fluid loads.
** FAST_SURROGATE_FLUID uses V_rel=V_robot-10*c_hat mm/s.
**
** OUTPUT REQUESTS
**
*Restart, write, number interval=10, time marks=YES
**
** FIELD OUTPUT: F-Output-1
**
** IMPACT ENERGY DIAGNOSTIC: preserve all existing physics; save visualization/contact fields every 25 us; RP and contact-resultant history remains every increment.
*Output, field, time interval=0.00833333333333, time marks=NO
*Node Output, nset=Robot_SOLID-1.ROBOT_CEL_BODY
U, V
*Node Output, nset=RP_ROBOT
U, UR, V, VR
*Contact Output, surface=ROBOT_SOLID-1.ROBOT_SOLID_SURF
CDISP
*Node Output, nset=Fluid_EULERIAN-1.FLUID_CEL_NODES
V
*Element Output, elset=FLUID_CEL_ALL
EVF, PRESS
*Output, history, frequency=1
*Node Output, nset=RP_ROBOT
COORD, U, UR, V, VR, A, AR, CF, RF, RM
*Contact Output, surface=ROBOT_SOLID-1.ROBOT_SOLID_SURF
CFN, CFS, CFT
*Contact Output, surface=Pipe_WALL_HELPER-1.PIPE_WALL_HELPER_SURF
CFN, CFS, CFT
*Output, history, time interval=1.0e-5
*Energy Output, variable=ALL
*Output, history, frequency=1, sensor, name=RP_U1
*Node Output, nset=RP_ROBOT
U1
*Output, history, frequency=1, sensor, name=RP_U2
*Node Output, nset=RP_ROBOT
U2
*Output, history, frequency=1, sensor, name=RP_U3
*Node Output, nset=RP_ROBOT
U3
*Output, history, frequency=1, sensor, name=RP_UR1
*Node Output, nset=RP_ROBOT
UR1
*Output, history, frequency=1, sensor, name=RP_UR2
*Node Output, nset=RP_ROBOT
UR2
*Output, history, frequency=1, sensor, name=RP_UR3
*Node Output, nset=RP_ROBOT
UR3
*Output, history, frequency=1, sensor, name=RP_V1
*Node Output, nset=RP_ROBOT
V1
*Output, history, frequency=1, sensor, name=RP_V2
*Node Output, nset=RP_ROBOT
V2
*Output, history, frequency=1, sensor, name=RP_V3
*Node Output, nset=RP_ROBOT
V3
*Output, history, frequency=1, sensor, name=RP_VR1
*Node Output, nset=RP_ROBOT
VR1
*Output, history, frequency=1, sensor, name=RP_VR2
*Node Output, nset=RP_ROBOT
VR2
*Output, history, frequency=1, sensor, name=RP_VR3
*Node Output, nset=RP_ROBOT
VR3
*End Step
